data_image0
_chemical_formula_structural       SiCaMgSiOCaO6
_chemical_formula_sum              "Si2 Ca2 Mg1 O7"
_cell_length_a       5.436111698798228
_cell_length_b       5.431300509992883
_cell_length_c       7.666420936584473
_cell_angle_alpha    69.18157774962098
_cell_angle_beta     69.19948686564535
_cell_angle_gamma    59.96169628893902

_space_group_name_H-M_alt    "P 1"
_space_group_IT_number       1

loop_
  _space_group_symop_operation_xyz
  'x, y, z'

loop_
  _atom_site_type_symbol
  _atom_site_label
  _atom_site_symmetry_multiplicity
  _atom_site_fract_x
  _atom_site_fract_y
  _atom_site_fract_z
  _atom_site_occupancy
  Si  Si1       1.0  0.8700278401374817  0.754461944103241  0.7939908504486084  1.0000
  Ca  Ca1       1.0  0.010267008095979734  0.8931826949119567  0.37365442514419556  1.0000
  Mg  Mg1       1.0  0.2929874062538147  0.17590662837028503  0.527255117893219  1.0000
  Si  Si2       1.0  0.7148296236991882  0.5979852676391602  0.26083406805992126  1.0000
  O   O1        1.0  0.599453866481781  0.34284892678260803  0.34991636872291565  1.0000
  Ca  Ca2       1.0  0.5750018954277039  0.45801281929016113  0.6823540925979614  1.0000
  O   O2        1.0  0.9945840239524841  0.4817201793193817  0.35077500343322754  1.0000
  O   O3        1.0  0.9866204857826233  0.4737520217895507  0.703608512878418  1.0000
  O   O4        1.0  0.1250598430633545  0.8700697422027588  0.7041987180709839  1.0000
  O   O5        1.0  0.5887566208839417  0.009502042084932327  0.7050713300704956  1.0000
  O   O6        1.0  0.4603900611400604  0.8780542016029358  0.3495792746543884  1.0000
  O   O7        1.0  0.7925574779510498  0.6751209497451782  0.02712099067866808  1.0000
