data_image0
_chemical_formula_structural       CaSiO
_chemical_formula_sum              "Ca1 Si1 O1"
_cell_length_a       3.482203985856692
_cell_length_b       3.4926315377787702
_cell_length_c       5.448954105377197
_cell_angle_alpha    71.49990795349318
_cell_angle_beta     71.4547757385146
_cell_angle_gamma    60.23355931290447

_space_group_name_H-M_alt    "P 1"
_space_group_IT_number       1

loop_
  _space_group_symop_operation_xyz
  'x, y, z'

loop_
  _atom_site_type_symbol
  _atom_site_label
  _atom_site_symmetry_multiplicity
  _atom_site_fract_x
  _atom_site_fract_y
  _atom_site_fract_z
  _atom_site_occupancy
  Ca  Ca1       1.0  0.12997257709503174  0.7024450302124023  0.14918804168701172  1.0000
  Si  Si1       1.0  0.6195238828659058  0.19260460138320923  0.6809213757514954  1.0000
  O   O1        1.0  0.7330567240715027  0.3044589161872864  0.3406662940979004  1.0000
