data_image0
_chemical_formula_structural       SiOMgCaO3SiOMgO2
_chemical_formula_sum              "Si2 O7 Mg2 Ca1"
_cell_length_a       5.362606020683561
_cell_length_b       5.362791217259024
_cell_length_c       7.956169128417969
_cell_angle_alpha    70.31101063134103
_cell_angle_beta     70.2586159285347
_cell_angle_gamma    59.95985929067233

_space_group_name_H-M_alt    "P 1"
_space_group_IT_number       1

loop_
  _space_group_symop_operation_xyz
  'x, y, z'

loop_
  _atom_site_type_symbol
  _atom_site_label
  _atom_site_symmetry_multiplicity
  _atom_site_fract_x
  _atom_site_fract_y
  _atom_site_fract_z
  _atom_site_occupancy
  Si  Si1       1.0  0.9579514265060425  0.3950577676296234  0.24645714461803442  1.0000
  O   O1        1.0  0.4930157959461212  0.5107342004776002  0.7684995532035828  1.0000
  Mg  Mg1       1.0  0.12649285793304443  0.5640169382095337  0.7414577007293701  1.0000
  Ca  Ca1       1.0  0.38394856452941895  0.8211363554000854  0.9695708751678467  1.0000
  O   O2        1.0  0.7871696352958679  0.9301428198814393  0.7684565186500549  1.0000
  O   O3        1.0  0.2735746800899506  0.41715601086616516  0.17332278192043304  1.0000
  O   O4        1.0  0.8837396502494812  0.31989064812660223  0.4706844389438629  1.0000
  Si  Si2       1.0  0.8087838292121887  0.24589984118938446  0.6954168081283569  1.0000
  O   O5        1.0  0.6928825974464418  0.7112091779708862  0.173311248421669  1.0000
  Mg  Mg2       1.0  0.6406095027923584  0.07742667198181152  0.19931037724018097  1.0000
  O   O6        1.0  0.9804335832595825  0.13009484112262726  0.17348065972328186  1.0000
  O   O7        1.0  0.07325666397809982  0.2239195704460144  0.7685052752494812  1.0000
