data_image0
_chemical_formula_structural       MgCaSiOSiO
_chemical_formula_sum              "Mg1 Ca1 Si2 O2"
_cell_length_a       3.6046268428088664
_cell_length_b       3.60487913887311
_cell_length_c       8.947226524353027
_cell_angle_alpha    78.34972207487479
_cell_angle_beta     78.37428316582087
_cell_angle_gamma    60.063538503933415

_space_group_name_H-M_alt    "P 1"
_space_group_IT_number       1

loop_
  _space_group_symop_operation_xyz
  'x, y, z'

loop_
  _atom_site_type_symbol
  _atom_site_label
  _atom_site_symmetry_multiplicity
  _atom_site_fract_x
  _atom_site_fract_y
  _atom_site_fract_z
  _atom_site_occupancy
  Mg  Mg1       1.0  0.430362731218338  0.4877344369888305  0.4221183657646179  1.0000
  Ca  Ca1       1.0  0.6534233093261719  0.711204171180725  0.7538414001464844  1.0000
  Si  Si1       1.0  0.8931114673614502  0.9498738050460814  0.03418103978037836  1.0000
  O   O1        1.0  0.35617074370384216  0.4136759638786316  0.6446097493171692  1.0000
  Si  Si2       1.0  0.18871869146823883  0.24515235424041748  0.14763416349887848  1.0000
  O   O2        1.0  0.12088853120803832  0.17803870141506192  0.35087689757347107  1.0000
