data_image0
_chemical_formula_structural       MgCaOCaO5Si
_chemical_formula_sum              "Mg1 Ca2 O6 Si1"
_cell_length_a       5.338503318453683
_cell_length_b       5.329701247806399
_cell_length_c       5.366192817687988
_cell_angle_alpha    119.64535339356301
_cell_angle_beta     119.7861654845925
_cell_angle_gamma    90.16019179972572

_space_group_name_H-M_alt    "P 1"
_space_group_IT_number       1

loop_
  _space_group_symop_operation_xyz
  'x, y, z'

loop_
  _atom_site_type_symbol
  _atom_site_label
  _atom_site_symmetry_multiplicity
  _atom_site_fract_x
  _atom_site_fract_y
  _atom_site_fract_z
  _atom_site_occupancy
  Mg  Mg1       1.0  0.3019197583198547  0.676682949066162  0.3203073441982268  1.0000
  Ca  Ca1       1.0  0.5517994165420532  0.4268309473991394  0.8205949068069458  1.0000
  O   O1        1.0  0.990718424320221  0.9009893536567688  0.31984806060791016  1.0000
  Ca  Ca2       1.0  0.0519072450697422  0.9268901348114014  0.8202233910560608  1.0000
  O   O2        1.0  0.035390473902225494  0.4105289876461029  0.7873671650886536  1.0000
  O   O3        1.0  0.07726045697927472  0.36495873332023615  0.32016783952713007  1.0000
  O   O4        1.0  0.612975001335144  0.45263391733169556  0.3206876218318938  1.0000
  O   O5        1.0  0.5265449285507202  0.988356351852417  0.32064107060432434  1.0000
  O   O6        1.0  0.5682629942893982  0.944158375263214  0.8531924486160278  1.0000
  Si  Si1       1.0  0.8017308115959167  0.17674309015274048  0.32015007734298706  1.0000
