data_image0
_chemical_formula_structural       SiCaSiO2MgO5Mg
_chemical_formula_sum              "Si2 Ca1 O7 Mg2"
_cell_length_a       5.3416837181602785
_cell_length_b       5.346921501877526
_cell_length_c       7.959026336669922
_cell_angle_alpha    70.42643649054692
_cell_angle_beta     70.3989086270496
_cell_angle_gamma    60.04577239281903

_space_group_name_H-M_alt    "P 1"
_space_group_IT_number       1

loop_
  _space_group_symop_operation_xyz
  'x, y, z'

loop_
  _atom_site_type_symbol
  _atom_site_label
  _atom_site_symmetry_multiplicity
  _atom_site_fract_x
  _atom_site_fract_y
  _atom_site_fract_z
  _atom_site_occupancy
  Si  Si1       1.0  0.9732336401939392  0.8598989248275757  0.04803976416587836  1.0000
  Ca  Ca1       1.0  0.3992753028869629  0.2851230204105378  0.77197003364563  1.0000
  Si  Si2       1.0  0.8250393867492676  0.7109286189079286  0.4956455230712891  1.0000
  O   O1        1.0  0.8018690347671509  0.39501872658729553  0.5700355172157289  1.0000
  O   O2        1.0  0.5095039010047911  0.9757983684539795  0.569732427597046  1.0000
  Mg  Mg1       1.0  0.14178583025932312  0.027654200792312622  0.5447297096252441  1.0000
  O   O3        1.0  0.7079798579216003  0.1757398247718811  0.9748325347900392  1.0000
  O   O4        1.0  0.2893882095813752  0.8816596865653992  0.9745739102363588  1.0000
  O   O5        1.0  0.08968859910964962  0.6879436969757081  0.5695382952690126  1.0000
  O   O6        1.0  0.9961877465248108  0.5947930216789246  0.9746068120002748  1.0000
  O   O7        1.0  0.8995024561882019  0.7853226661682129  0.27192601561546326  1.0000
  Mg  Mg2       1.0  0.6558403372764587  0.542850911617279  0.999842941761017  1.0000
