data_image0
_chemical_formula_structural       SiOSiO2CaO4MgSi
_chemical_formula_sum              "Si3 O7 Ca1 Mg1"
_cell_length_a       5.274235590857195
_cell_length_b       5.276550681762382
_cell_length_c       8.111281394958496
_cell_angle_alpha    71.42652392717238
_cell_angle_beta     71.27803505141463
_cell_angle_gamma    60.28815281262196

_space_group_name_H-M_alt    "P 1"
_space_group_IT_number       1

loop_
  _space_group_symop_operation_xyz
  'x, y, z'

loop_
  _atom_site_type_symbol
  _atom_site_label
  _atom_site_symmetry_multiplicity
  _atom_site_fract_x
  _atom_site_fract_y
  _atom_site_fract_z
  _atom_site_occupancy
  Si  Si1       1.0  0.8026921153068542  0.08057886362075806  0.8691091537475586  1.0000
  O   O1        1.0  0.1688326597213745  0.9670065641403198  0.7498067021369934  1.0000
  Si  Si2       1.0  0.48501232266426086  0.761516273021698  0.8223034739494324  1.0000
  O   O2        1.0  0.5900839567184448  0.2961390614509582  0.32788169384002686  1.0000
  O   O3        1.0  0.6692312359809877  0.44509267807006836  0.7501268982887268  1.0000
  Ca  Ca1       1.0  0.9311951398849487  0.21572154760360718  0.4772953987121582  1.0000
  O   O4        1.0  0.3408948481082917  0.8818622827529907  0.32492128014564514  1.0000
  O   O5        1.0  0.6906680464744568  0.9462313652038574  0.7505316138267517  1.0000
  O   O6        1.0  0.4124595820903778  0.6904808878898621  0.0390704907476902  1.0000
  O   O7        1.0  0.006726723164319992  0.6302638053894043  0.32719919085502625  1.0000
  Mg  Mg1       1.0  0.6827208399772644  0.9682126641273499  0.2234823852777481  1.0000
  Si  Si3       1.0  0.33564502000808716  0.6222083568572998  0.2607566714286804  1.0000
