data_image0
_chemical_formula_structural       Ca3Mg2SiOCaSiO
_chemical_formula_sum              "Ca4 Mg2 Si2 O2"
_cell_length_a       4.133377144543595
_cell_length_b       6.765495418093065
_cell_length_c       7.480191230773926
_cell_angle_alpha    106.91206213929551
_cell_angle_beta     89.98950450398011
_cell_angle_gamma    89.99976344764727

_space_group_name_H-M_alt    "P 1"
_space_group_IT_number       1

loop_
  _space_group_symop_operation_xyz
  'x, y, z'

loop_
  _atom_site_type_symbol
  _atom_site_label
  _atom_site_symmetry_multiplicity
  _atom_site_fract_x
  _atom_site_fract_y
  _atom_site_fract_z
  _atom_site_occupancy
  Ca  Ca1       1.0  0.7828698754310608  0.44103330373764044  0.937073290348053  1.0000
  Ca  Ca2       1.0  0.7830095291137695  0.3472967445850373  0.34654709696769714  1.0000
  Ca  Ca3       1.0  0.2831258475780487  0.09514693170785904  0.6088700890541077  1.0000
  Mg  Mg1       1.0  0.7832023501396179  0.7888656854629517  0.6550697684288025  1.0000
  Mg  Mg2       1.0  0.2830210328102112  0.6538873910903931  0.299702912569046  1.0000
  Si  Si1       1.0  0.2833505868911743  0.5559723377227783  0.6651252508163452  1.0000
  O   O1        1.0  0.283342570066452  0.3586254715919495  0.14420875906944278  1.0000
  Ca  Ca4       1.0  0.2832592725753784  0.0012990790419280531  0.017446015030145645  1.0000
  Si  Si2       1.0  0.7830774784088135  0.8867671489715576  0.2895866930484772  1.0000
  O   O2        1.0  0.7832826972007751  0.08397947996854782  0.8102355003356934  1.0000
