data_image0
_chemical_formula_structural       SiMgCaSiOCa2OSiCaO8
_chemical_formula_sum              "Si3 Mg1 Ca4 O10"
_cell_length_a       5.387283230941403
_cell_length_b       5.6409847173835015
_cell_length_c       9.514567375183105
_cell_angle_alpha    94.79084039714151
_cell_angle_beta     95.29080408991982
_cell_angle_gamma    121.46586004561851

_space_group_name_H-M_alt    "P 1"
_space_group_IT_number       1

loop_
  _space_group_symop_operation_xyz
  'x, y, z'

loop_
  _atom_site_type_symbol
  _atom_site_label
  _atom_site_symmetry_multiplicity
  _atom_site_fract_x
  _atom_site_fract_y
  _atom_site_fract_z
  _atom_site_occupancy
  Si  Si1       1.0  0.08343757688999176  0.9672375321388245  0.06219647824764253  1.0000
  Mg  Mg1       1.0  0.07187408953905106  0.9389636516571045  0.7538213729858398  1.0000
  Ca  Ca1       1.0  0.7233896255493164  0.2619501054286957  0.9985915422439575  1.0000
  Si  Si2       1.0  0.6464131474494934  0.35954171419143677  0.34131160378456116  1.0000
  O   O1        1.0  0.5598705410957336  0.1717727780342102  0.4763716459274292  1.0000
  Ca  Ca2       1.0  0.384907066822052  0.5908976197242737  0.8343709707260132  1.0000
  Ca  Ca3       1.0  0.3763884902000427  0.7064610719680786  0.2217692732810974  1.0000
  O   O2        1.0  0.6749991774559021  0.6570910215377808  0.37887588143348694  1.0000
  Si  Si3       1.0  0.7026890516281128  0.23511934280395508  0.6560469269752502  1.0000
  Ca  Ca4       1.0  0.04319056123495102  0.11543245613574982  0.425216943025589  1.0000
  O   O3        1.0  0.4667735695838928  0.9926122426986693  0.7444780468940735  1.0000
  O   O4        1.0  0.764342725276947  0.5403873324394226  0.7367395758628845  1.0000
  O   O5        1.0  0.2229214310646057  0.19826596975326538  0.9515029788017273  1.0000
  O   O6        1.0  0.9093357920646667  0.3538852632045746  0.27328914403915405  1.0000
  O   O7        1.0  0.006336417514830807  0.21531656384468076  0.6611913442611694  1.0000
  O   O8        1.0  0.12935006618499756  0.7077599167823792  0.013028765097260475  1.0000
  O   O9        1.0  0.3158460557460785  0.13114717602729797  0.22500400245189667  1.0000
  O   O10       1.0  0.7327888011932372  0.861579656600952  0.06124388054013252  1.0000
