data_image0
_chemical_formula_structural       CaMgSiO
_chemical_formula_sum              "Ca1 Mg1 Si1 O1"
_cell_length_a       3.15871325931567
_cell_length_b       3.161202461827499
_cell_length_c       7.36264181137085
_cell_angle_alpha    90.04522518707412
_cell_angle_beta     89.93839419435673
_cell_angle_gamma    119.92931305456476

_space_group_name_H-M_alt    "P 1"
_space_group_IT_number       1

loop_
  _space_group_symop_operation_xyz
  'x, y, z'

loop_
  _atom_site_type_symbol
  _atom_site_label
  _atom_site_symmetry_multiplicity
  _atom_site_fract_x
  _atom_site_fract_y
  _atom_site_fract_z
  _atom_site_occupancy
  Ca  Ca1       1.0  0.3084074556827545  0.12811234593391418  0.13250117003917694  1.0000
  Mg  Mg1       1.0  0.6411699056625366  0.7944424152374269  0.49871286749839777  1.0000
  Si  Si1       1.0  0.9745084643363953  0.46122184395790106  0.803098976612091  1.0000
  O   O1        1.0  0.9741271138191223  0.4611028134822846  0.3367462456226349  1.0000
