data_image0
_chemical_formula_structural       MgSiCaO
_chemical_formula_sum              "Mg1 Si1 Ca1 O1"
_cell_length_a       3.672522576453731
_cell_length_b       3.67406507217239
_cell_length_c       7.503713607788086
_cell_angle_alpha    75.77764266468196
_cell_angle_beta     75.83862334184974
_cell_angle_gamma    60.13755732970107

_space_group_name_H-M_alt    "P 1"
_space_group_IT_number       1

loop_
  _space_group_symop_operation_xyz
  'x, y, z'

loop_
  _atom_site_type_symbol
  _atom_site_label
  _atom_site_symmetry_multiplicity
  _atom_site_fract_x
  _atom_site_fract_y
  _atom_site_fract_z
  _atom_site_occupancy
  Mg  Mg1       1.0  0.5306781530380249  0.9493448138237  0.1925041377544403  1.0000
  Si  Si1       1.0  0.27520483732223516  0.6918827891349792  0.9618877172470093  1.0000
  Ca  Ca1       1.0  0.7206166386604309  0.1377445012331009  0.623961865901947  1.0000
  O   O1        1.0  0.35757806897163397  0.7737216949462891  0.7165725827217102  1.0000
