data_image0
_chemical_formula_structural       CaOMgSi2OMgO5
_chemical_formula_sum              "Ca1 O7 Mg2 Si2"
_cell_length_a       5.332332698081132
_cell_length_b       5.331695641399066
_cell_length_c       7.961872100830078
_cell_angle_alpha    70.43042473558741
_cell_angle_beta     70.46841352238337
_cell_angle_gamma    60.02911217584902

_space_group_name_H-M_alt    "P 1"
_space_group_IT_number       1

loop_
  _space_group_symop_operation_xyz
  'x, y, z'

loop_
  _atom_site_type_symbol
  _atom_site_label
  _atom_site_symmetry_multiplicity
  _atom_site_fract_x
  _atom_site_fract_y
  _atom_site_fract_z
  _atom_site_occupancy
  Ca  Ca1       1.0  0.6964800953865051  0.39624136686325073  0.1454342007637024  1.0000
  O   O1        1.0  0.8061602711677551  0.7986905574798584  0.9427720904350281  1.0000
  Mg  Mg1       1.0  0.43925532698631287  0.13927114009857175  0.9168780446052551  1.0000
  Si  Si1       1.0  0.12150673568248754  0.8215960264205933  0.8698723316192627  1.0000
  Si  Si2       1.0  0.271087646484375  0.9693489670753479  0.422024130821228  1.0000
  O   O2        1.0  0.005558960605412854  0.9933466315269469  0.3482665717601776  1.0000
  Mg  Mg2       1.0  0.9533101320266725  0.6524034738540648  0.37454816699028015  1.0000
  O   O3        1.0  0.5867897868156433  0.7045550346374511  0.3482290804386139  1.0000
  O   O4        1.0  0.1966114640235901  0.8957297801971436  0.6458399891853333  1.0000
  O   O5        1.0  0.29332503676414495  0.28547096252441406  0.34783968329429626  1.0000
  O   O6        1.0  0.38627579808235174  0.505990207195282  0.9432647228240967  1.0000
  O   O7        1.0  0.09919747710227966  0.08653374016284943  0.9431732892990112  1.0000
