data_image0
_chemical_formula_structural       CaSi2O
_chemical_formula_sum              "Ca1 Si2 O1"
_cell_length_a       3.8034541071884425
_cell_length_b       3.805926639199847
_cell_length_c       5.699885845184326
_cell_angle_alpha    89.98841167380743
_cell_angle_beta     90.03941952687941
_cell_angle_gamma    120.03864970960551

_space_group_name_H-M_alt    "P 1"
_space_group_IT_number       1

loop_
  _space_group_symop_operation_xyz
  'x, y, z'

loop_
  _atom_site_type_symbol
  _atom_site_label
  _atom_site_symmetry_multiplicity
  _atom_site_fract_x
  _atom_site_fract_y
  _atom_site_fract_z
  _atom_site_occupancy
  Ca  Ca1       1.0  0.903670608997345  0.04724547639489174  0.003082275390625  1.0000
  Si  Si1       1.0  0.5699059963226318  0.38041937351226807  0.5596616268157959  1.0000
  Si  Si2       1.0  0.23666557669639587  0.7138386368751526  0.4060330092906952  1.0000
  O   O1        1.0  0.5699090361595154  0.3808363676071167  0.8563032150268555  1.0000
