data_image0
_chemical_formula_structural       Ca2SiO2Mg
_chemical_formula_sum              "Ca2 Si1 O2 Mg1"
_cell_length_a       3.5349732987192124
_cell_length_b       3.533475422755787
_cell_length_c       7.5124192237854
_cell_angle_alpha    90.00664144833269
_cell_angle_beta     89.98307729445294
_cell_angle_gamma    89.90429789156337

_space_group_name_H-M_alt    "P 1"
_space_group_IT_number       1

loop_
  _space_group_symop_operation_xyz
  'x, y, z'

loop_
  _atom_site_type_symbol
  _atom_site_label
  _atom_site_symmetry_multiplicity
  _atom_site_fract_x
  _atom_site_fract_y
  _atom_site_fract_z
  _atom_site_occupancy
  Ca  Ca1       1.0  0.33777928352355957  0.4483616352081299  0.45652973651885986  1.0000
  Ca  Ca2       1.0  0.8380248546600342  0.9484585523605348  0.13709330558776855  1.0000
  Si  Si1       1.0  0.8378681540489197  0.9484836459159852  0.7080428004264832  1.0000
  O   O1        1.0  0.8364951610565186  0.948248028755188  0.4600023925304413  1.0000
  O   O2        1.0  0.3367343246936798  0.44808763265609747  0.14325542747974396  1.0000
  Mg  Mg1       1.0  0.33811482787132263  0.4487217068672181  0.8607943654060364  1.0000
