data_image0
_chemical_formula_structural       CaMg2SiCaSiOMg
_chemical_formula_sum              "Ca2 Mg3 Si2 O1"
_cell_length_a       4.197040585826216
_cell_length_b       4.204646128047697
_cell_length_c       9.791244506835938
_cell_angle_alpha    89.99477057979902
_cell_angle_beta     90.00661412787913
_cell_angle_gamma    89.98850729633007

_space_group_name_H-M_alt    "P 1"
_space_group_IT_number       1

loop_
  _space_group_symop_operation_xyz
  'x, y, z'

loop_
  _atom_site_type_symbol
  _atom_site_label
  _atom_site_symmetry_multiplicity
  _atom_site_fract_x
  _atom_site_fract_y
  _atom_site_fract_z
  _atom_site_occupancy
  Ca  Ca1       1.0  0.8116521835327148  0.6731132864952087  0.2949622869491577  1.0000
  Mg  Mg1       1.0  0.8116117715835571  0.17249497771263123  0.043257344514131546  1.0000
  Mg  Mg2       1.0  0.3114430606365204  0.6727511882781981  0.04267702251672745  1.0000
  Si  Si1       1.0  0.3114864230155945  0.17235822975635529  0.8429333567619324  1.0000
  Ca  Ca2       1.0  0.31136074662208557  0.17227277159690857  0.5574860572814941  1.0000
  Si  Si2       1.0  0.3113912343978882  0.17284300923347473  0.25167205929756165  1.0000
  O   O1        1.0  0.811543345451355  0.6725406050682067  0.038527026772499084  1.0000
  Mg  Mg3       1.0  0.8116776347160339  0.6721416711807251  0.8094752430915833  1.0000
