data_image0
_chemical_formula_structural       CaSiCaO
_chemical_formula_sum              "Ca2 Si1 O1"
_cell_length_a       3.3987501734999426
_cell_length_b       3.3993582545957386
_cell_length_c       7.695205211639404
_cell_angle_alpha    77.27155533535574
_cell_angle_beta     77.28766926773913
_cell_angle_gamma    60.05079844026349

_space_group_name_H-M_alt    "P 1"
_space_group_IT_number       1

loop_
  _space_group_symop_operation_xyz
  'x, y, z'

loop_
  _atom_site_type_symbol
  _atom_site_label
  _atom_site_symmetry_multiplicity
  _atom_site_fract_x
  _atom_site_fract_y
  _atom_site_fract_z
  _atom_site_occupancy
  Ca  Ca1       1.0  0.15517640113830564  0.6352359056472778  0.8586989641189575  1.0000
  Si  Si1       1.0  0.926861047744751  0.40700754523277277  0.5420198440551758  1.0000
  Ca  Ca2       1.0  0.6994057893753052  0.17938493192195892  0.2251598984003067  1.0000
  O   O1        1.0  0.42671999335289  0.9074391722679138  0.04155149683356285  1.0000
