data_image0
_chemical_formula_structural       SiCaMg2OSiO6
_chemical_formula_sum              "Si2 Ca1 Mg2 O7"
_cell_length_a       5.202271748040772
_cell_length_b       5.198848305919293
_cell_length_c       9.01885986328125
_cell_angle_alpha    73.56137553461218
_cell_angle_beta     73.4963987646934
_cell_angle_gamma    60.14043147064801

_space_group_name_H-M_alt    "P 1"
_space_group_IT_number       1

loop_
  _space_group_symop_operation_xyz
  'x, y, z'

loop_
  _atom_site_type_symbol
  _atom_site_label
  _atom_site_symmetry_multiplicity
  _atom_site_fract_x
  _atom_site_fract_y
  _atom_site_fract_z
  _atom_site_occupancy
  Si  Si1       1.0  0.25780391693115234  0.15646713972091675  0.5485597252845764  1.0000
  Ca  Ca1       1.0  0.530602216720581  0.427682638168335  0.7339450120925903  1.0000
  Mg  Mg1       1.0  0.9533992409706116  0.8531535863876343  0.45606735348701477  1.0000
  Mg  Mg2       1.0  0.10462494939565659  0.005534468684345484  0.011539485305547714  1.0000
  O   O1        1.0  0.09706529974937439  0.7141063213348389  0.9102205634117126  1.0000
  Si  Si2       1.0  0.8011429905891417  0.700751781463623  0.9195657968521118  1.0000
  O   O2        1.0  0.9623386263847351  0.45462083816528326  0.5577771067619324  1.0000
  O   O3        1.0  0.5027757287025453  0.9966202378273011  0.9104151129722595  1.0000
  O   O4        1.0  0.8141747713088989  0.40211358666419983  0.910147488117218  1.0000
  O   O5        1.0  0.24441201984882344  0.8608126044273378  0.5577237010002136  1.0000
  O   O6        1.0  0.028759703040122986  0.9286658763885499  0.2339410036802292  1.0000
  O   O7        1.0  0.556589663028717  0.14307443797588348  0.5580974817276001  1.0000
