data_image0
_chemical_formula_structural       CaOSiMgSiO6
_chemical_formula_sum              "Ca1 O7 Si2 Mg1"
_cell_length_a       4.841019496263182
_cell_length_b       5.585864613274862
_cell_length_c       5.578087329864502
_cell_angle_alpha    107.14594169394645
_cell_angle_beta     97.31163788312601
_cell_angle_gamma    97.34302308446405

_space_group_name_H-M_alt    "P 1"
_space_group_IT_number       1

loop_
  _space_group_symop_operation_xyz
  'x, y, z'

loop_
  _atom_site_type_symbol
  _atom_site_label
  _atom_site_symmetry_multiplicity
  _atom_site_fract_x
  _atom_site_fract_y
  _atom_site_fract_z
  _atom_site_occupancy
  Ca  Ca1       1.0  0.6696387529373169  0.1081497073173523  0.46181294322013855  1.0000
  O   O1        1.0  0.1705397665500641  0.37372490763664246  0.19649823009967804  1.0000
  Si  Si1       1.0  0.06823547929525375  0.6275044679641724  0.3791581094264984  1.0000
  Mg  Mg1       1.0  0.6698433756828308  0.725001335144043  0.8457456231117249  1.0000
  Si  Si2       1.0  0.2718905806541443  0.19204065203666687  0.9430654048919678  1.0000
  O   O2        1.0  0.3756365776062011  0.7868768572807311  0.5398593544960022  1.0000
  O   O3        1.0  0.9625089168548584  0.030747339129447937  0.7855694890022278  1.0000
  O   O4        1.0  0.4440467655658722  0.3618263006210327  0.7968736290931702  1.0000
  O   O5        1.0  0.8950533866882324  0.7734559774398805  0.20777037739753726  1.0000
  O   O6        1.0  0.4684557020664215  0.0126661229878664  0.043650027364492416  1.0000
  O   O7        1.0  0.8701182007789612  0.5263634920120239  0.5568923354148865  1.0000
