data_image0
_chemical_formula_structural       Mg3SiMg2CaOMgOSi2
_chemical_formula_sum              "Mg6 Si3 Ca1 O2"
_cell_length_a       4.12262345630173
_cell_length_b       4.124273101597877
_cell_length_c       12.442832946777344
_cell_angle_alpha    99.52907992502139
_cell_angle_beta     99.52940733371383
_cell_angle_gamma    90.00733806617251

_space_group_name_H-M_alt    "P 1"
_space_group_IT_number       1

loop_
  _space_group_symop_operation_xyz
  'x, y, z'

loop_
  _atom_site_type_symbol
  _atom_site_label
  _atom_site_symmetry_multiplicity
  _atom_site_fract_x
  _atom_site_fract_y
  _atom_site_fract_z
  _atom_site_occupancy
  Mg  Mg1       1.0  0.9840091466903687  0.46307310461997986  0.26129698753356934  1.0000
  Mg  Mg2       1.0  0.09425907582044601  0.07310617715120316  0.48137849569320673  1.0000
  Mg  Mg3       1.0  0.8905603885650635  0.8695173263549805  0.07443561404943466  1.0000
  Si  Si1       1.0  0.39114910364151  0.3699798285961151  0.07530084252357483  1.0000
  Mg  Mg4       1.0  0.2975046932697296  0.776441752910614  0.8887513279914856  1.0000
  Mg  Mg5       1.0  0.7970805764198303  0.27669334411621094  0.8887847065925598  1.0000
  Ca  Ca1       1.0  0.6864908337593079  0.6662909388542175  0.6664990186691284  1.0000
  O   O1        1.0  0.9752563238143921  0.9541837573051453  0.24355027079582212  1.0000
  Mg  Mg6       1.0  0.48501190543174744  0.9632773995399475  0.26168179512023926  1.0000
  O   O2        1.0  0.8048012256622314  0.783859372138977  0.9023313522338867  1.0000
  Si  Si2       1.0  0.5651426911354065  0.5436050295829773  0.4223010540008545  1.0000
  Si  Si3       1.0  0.21505498886108398  0.1943875253200531  0.7237365245819092  1.0000
