data_image0
_chemical_formula_structural       CaOMgOMgSi2O5
_chemical_formula_sum              "Ca1 O7 Mg2 Si2"
_cell_length_a       5.354751102667715
_cell_length_b       5.354020709435645
_cell_length_c       7.981625080108643
_cell_angle_alpha    70.44202798419339
_cell_angle_beta     70.38143729718841
_cell_angle_gamma    59.97110955991461

_space_group_name_H-M_alt    "P 1"
_space_group_IT_number       1

loop_
  _space_group_symop_operation_xyz
  'x, y, z'

loop_
  _atom_site_type_symbol
  _atom_site_label
  _atom_site_symmetry_multiplicity
  _atom_site_fract_x
  _atom_site_fract_y
  _atom_site_fract_z
  _atom_site_occupancy
  Ca  Ca1       1.0  0.7645605802536011  0.052106369286775596  0.29331159591674805  1.0000
  O   O1        1.0  0.264885663986206  0.5517052412033081  0.7932711243629456  1.0000
  Mg  Mg1       1.0  0.021406374871730804  0.30899283289909363  0.5224548578262329  1.0000
  O   O2        1.0  0.8740512728691101  0.7419333457946778  0.09157474339008331  1.0000
  Mg  Mg2       1.0  0.5077353119850158  0.7956213355064392  0.06330396234989166  1.0000
  Si  Si1       1.0  0.3392879068851471  0.6270354390144348  0.5687569975852966  1.0000
  Si  Si2       1.0  0.18992657959461212  0.4776085913181305  0.01802026852965355  1.0000
  O   O3        1.0  0.45365089178085327  0.45543125271797186  0.09178110957145688  1.0000
  O   O4        1.0  0.07374878972768784  0.9427099227905273  0.49587351083755493  1.0000
  O   O5        1.0  0.1681867837905884  0.16131889820098877  0.09176469594240189  1.0000
  O   O6        1.0  0.3617437481880188  0.36199507117271423  0.4958460032939911  1.0000
  O   O7        1.0  0.6547014117240906  0.6491984724998475  0.49551504850387573  1.0000
