data_image0
_chemical_formula_structural       Mg2SiO
_chemical_formula_sum              "Mg2 Si1 O1"
_cell_length_a       3.059652424164585
_cell_length_b       3.0583276379126882
_cell_length_c       7.0125322341918945
_cell_angle_alpha    77.40035292566799
_cell_angle_beta     77.3764337473979
_cell_angle_gamma    60.01085790214429

_space_group_name_H-M_alt    "P 1"
_space_group_IT_number       1

loop_
  _space_group_symop_operation_xyz
  'x, y, z'

loop_
  _atom_site_type_symbol
  _atom_site_label
  _atom_site_symmetry_multiplicity
  _atom_site_fract_x
  _atom_site_fract_y
  _atom_site_fract_z
  _atom_site_occupancy
  Mg  Mg1       1.0  0.22414301335811615  0.6479438543319702  0.7975133061408998  1.0000
  Mg  Mg2       1.0  0.7729955911636353  0.1965002417564392  0.150353342294693  1.0000
  Si  Si1       1.0  0.9989901185035706  0.42249616980552673  0.47387892007827764  1.0000
  O   O1        1.0  0.4982604682445527  0.9215821027755737  0.9738553166389466  1.0000
