data_image0
_chemical_formula_structural       CaOCaOMgO2SiO2
_chemical_formula_sum              "Ca2 O6 Mg1 Si1"
_cell_length_a       5.385944127455078
_cell_length_b       5.386458382428743
_cell_length_c       5.386928081512451
_cell_angle_alpha    59.96036796075946
_cell_angle_beta     59.974887876881034
_cell_angle_gamma    59.99188687935846

_space_group_name_H-M_alt    "P 1"
_space_group_IT_number       1

loop_
  _space_group_symop_operation_xyz
  'x, y, z'

loop_
  _atom_site_type_symbol
  _atom_site_label
  _atom_site_symmetry_multiplicity
  _atom_site_fract_x
  _atom_site_fract_y
  _atom_site_fract_z
  _atom_site_occupancy
  Ca  Ca1       1.0  0.40581709146499634  0.8649076819419861  0.563750684261322  1.0000
  O   O1        1.0  0.4218849837779999  0.349096417427063  0.04779556393623352  1.0000
  Ca  Ca2       1.0  0.9058530330657959  0.36498722434043884  0.06367328017950058  1.0000
  O   O2        1.0  0.42185607552528387  0.8812698125839235  0.047662969678640366  1.0000
  Mg  Mg1       1.0  0.15588554739952085  0.61479651927948  0.3139418065547943  1.0000
  O   O3        1.0  0.8896254301071167  0.3487776815891266  0.5800994634628295  1.0000
  O   O4        1.0  0.8897987008094788  0.8810846209526062  0.0476776622235775  1.0000
  Si  Si1       1.0  0.6556997895240784  0.11476382613182068  0.8139391541481018  1.0000
  O   O5        1.0  0.889622688293457  0.8810396194458008  0.5802159309387207  1.0000
  O   O6        1.0  0.42196708917617803  0.34873372316360474  0.5800439119338989  1.0000
