data_image0
_chemical_formula_structural       SiCaSiOSiCaMgOSiCaO10
_chemical_formula_sum              "Si4 Ca3 O12 Mg1"
_cell_length_a       6.501385905128386
_cell_length_b       7.161179777317937
_cell_length_c       6.93561315536499
_cell_angle_alpha    63.42674042308442
_cell_angle_beta     71.6887550075661
_cell_angle_gamma    67.0758768519614

_space_group_name_H-M_alt    "P 1"
_space_group_IT_number       1

loop_
  _space_group_symop_operation_xyz
  'x, y, z'

loop_
  _atom_site_type_symbol
  _atom_site_label
  _atom_site_symmetry_multiplicity
  _atom_site_fract_x
  _atom_site_fract_y
  _atom_site_fract_z
  _atom_site_occupancy
  Si  Si1       1.0  0.6617796421051027  0.5599212050437926  0.08514318615198135  1.0000
  Ca  Ca1       1.0  0.74973464012146  0.01627218164503574  0.05428266897797588  1.0000
  Si  Si2       1.0  0.5671491026878357  0.6406602263450623  0.5365885496139526  1.0000
  O   O1        1.0  0.13759945333003998  0.11481125652790068  0.7787954807281494  1.0000
  Si  Si3       1.0  0.2622261643409729  0.9794804453849792  0.0004041194915772125  1.0000
  Ca  Ca2       1.0  0.9822568893432618  0.7555260658264159  0.5829889178276062  1.0000
  Mg  Mg1       1.0  0.24892885982990265  0.4290795028209686  0.03046108409762383  1.0000
  O   O2        1.0  0.8325267434120178  0.08950677514076233  0.6245855689048767  1.0000
  Si  Si4       1.0  0.9819674491882324  0.2467913031578064  0.5803146958351135  1.0000
  Ca  Ca3       1.0  0.49202078580856323  0.19765441119670865  0.5054184794425964  1.0000
  O   O3        1.0  0.5797438025474548  0.5643065571784973  0.337691992521286  1.0000
  O   O4        1.0  0.33285507559776306  0.6018921732902526  0.700914740562439  1.0000
  O   O5        1.0  0.609515368938446  0.8768222928047179  0.44051152467727667  1.0000
  O   O6        1.0  0.6096569299697876  0.3399878442287445  0.12042292952537538  1.0000
  O   O7        1.0  0.8057770133018494  0.46779137849807734  0.6394762396812439  1.0000
  O   O8        1.0  0.15846903622150424  0.3182986080646515  0.35862889885902405  1.0000
  O   O9        1.0  0.912834107875824  0.5965429544448853  0.9751437902450563  1.0000
  O   O10       1.0  0.4720585346221924  0.7749185562133788  0.9428020715713502  1.0000
  O   O11       1.0  0.38174304366111755  0.14404204487800598  0.9889765977859498  1.0000
  O   O12       1.0  0.07384935766458511  0.8975958824157715  0.20598608255386353  1.0000
