data_image0
_chemical_formula_structural       CaMgCa4Si2OSiO
_chemical_formula_sum              "Ca5 Mg1 Si3 O2"
_cell_length_a       4.548169194359593
_cell_length_b       4.528959617119906
_cell_length_c       12.469833374023438
_cell_angle_alpha    100.38652142487753
_cell_angle_beta     100.40613733386235
_cell_angle_gamma    90.00202408204852

_space_group_name_H-M_alt    "P 1"
_space_group_IT_number       1

loop_
  _space_group_symop_operation_xyz
  'x, y, z'

loop_
  _atom_site_type_symbol
  _atom_site_label
  _atom_site_symmetry_multiplicity
  _atom_site_fract_x
  _atom_site_fract_y
  _atom_site_fract_z
  _atom_site_occupancy
  Ca  Ca1       1.0  0.8184816837310791  0.7860116958618164  0.7668131589889526  1.0000
  Mg  Mg1       1.0  0.5378783941268921  0.0051975250244140625  0.20422644913196564  1.0000
  Ca  Ca2       1.0  0.43119749426841736  0.3985843062400818  0.9887838363647461  1.0000
  Ca  Ca3       1.0  0.20629137754440308  0.6735207438468933  0.5430141091346741  1.0000
  Ca  Ca4       1.0  0.7057415246963501  0.17285263538360596  0.5411163568496704  1.0000
  Ca  Ca5       1.0  0.03990555927157402  0.5061374306678772  0.2061144858598709  1.0000
  Si  Si1       1.0  0.2991752624511719  0.2669129967689514  0.7290277481079102  1.0000
  Si  Si2       1.0  0.11920229345560074  0.08673940598964691  0.36718636751174927  1.0000
  O   O1        1.0  0.5244687795639038  0.49200594425201416  0.17696672677993774  1.0000
  Si  Si3       1.0  0.9514957666397095  0.9184827208518982  0.0297846719622612  1.0000
  O   O2        1.0  0.7240799069404602  0.6906116008758545  0.576514482498169  1.0000
