data_image0
_chemical_formula_structural       Mg2SiO
_chemical_formula_sum              "Mg2 Si1 O1"
_cell_length_a       3.017890237080717
_cell_length_b       3.020986205126734
_cell_length_c       7.130891799926758
_cell_angle_alpha    77.98821342733832
_cell_angle_beta     77.95400753428089
_cell_angle_gamma    60.260664860937055

_space_group_name_H-M_alt    "P 1"
_space_group_IT_number       1

loop_
  _space_group_symop_operation_xyz
  'x, y, z'

loop_
  _atom_site_type_symbol
  _atom_site_label
  _atom_site_symmetry_multiplicity
  _atom_site_fract_x
  _atom_site_fract_y
  _atom_site_fract_z
  _atom_site_occupancy
  Mg  Mg1       1.0  0.6453939080238342  0.8473700881004332  0.4360581934452057  1.0000
  Mg  Mg2       1.0  0.43048277497291565  0.6325162649154662  0.08036156743764877  1.0000
  Si  Si1       1.0  0.8702840209007263  0.0728372260928154  0.7596619129180908  1.0000
  O   O1        1.0  0.03966490551829338  0.24168461561203003  0.25487253069877625  1.0000
