data_image0
_chemical_formula_structural       MgOCaOSiCa2O4SiO2
_chemical_formula_sum              "Mg1 O8 Ca3 Si2"
_cell_length_a       5.29691184415297
_cell_length_b       5.29352025422556
_cell_length_c       6.900150775909424
_cell_angle_alpha    89.64708665719482
_cell_angle_beta     90.33091150458478
_cell_angle_gamma    115.91128745492246

_space_group_name_H-M_alt    "P 1"
_space_group_IT_number       1

loop_
  _space_group_symop_operation_xyz
  'x, y, z'

loop_
  _atom_site_type_symbol
  _atom_site_label
  _atom_site_symmetry_multiplicity
  _atom_site_fract_x
  _atom_site_fract_y
  _atom_site_fract_z
  _atom_site_occupancy
  Mg  Mg1       1.0  0.39365848898887634  0.06696786731481552  0.8740270733833313  1.0000
  O   O1        1.0  0.08489461243152627  0.8513342738151551  0.10169218480587006  1.0000
  Ca  Ca1       1.0  0.393557608127594  0.06711740046739578  0.373263418674469  1.0000
  O   O2        1.0  0.17728354036808014  0.2833156883716583  0.7860862612724304  1.0000
  Si  Si1       1.0  0.7386789917945862  0.7215656042098999  0.13136054575443268  1.0000
  Ca  Ca2       1.0  0.07374384254217148  0.3857506811618805  0.09065529704093933  1.0000
  Ca  Ca3       1.0  0.7128957509994507  0.7475726008415222  0.6561883687973022  1.0000
  O   O3        1.0  0.6082431077957153  0.37498989701271057  0.1017516702413559  1.0000
  O   O4        1.0  0.1792895495891571  0.7579839825630188  0.6454933881759644  1.0000
  O   O5        1.0  0.6104692220687866  0.8506974577903746  0.9609858393669128  1.0000
  O   O6        1.0  0.12987962365150452  0.32925140857696533  0.4068920612335205  1.0000
  Si  Si2       1.0  0.04874275252223015  0.41184714436531067  0.6158332228660583  1.0000
  O   O7        1.0  0.7028660774230957  0.28133127093315125  0.6456422805786133  1.0000
  O   O8        1.0  0.6565654873847961  0.8028238415718078  0.3402412235736847  1.0000
