data_image0
_chemical_formula_structural       MgOMg2OSiCa2O4Si2O6
_chemical_formula_sum              "Mg3 O12 Si3 Ca2"
_cell_length_a       5.26803393224366
_cell_length_b       5.3635333175537685
_cell_length_c       9.709659576416016
_cell_angle_alpha    90.53460140680241
_cell_angle_beta     89.26747833440092
_cell_angle_gamma    63.63049171405203

_space_group_name_H-M_alt    "P 1"
_space_group_IT_number       1

loop_
  _space_group_symop_operation_xyz
  'x, y, z'

loop_
  _atom_site_type_symbol
  _atom_site_label
  _atom_site_symmetry_multiplicity
  _atom_site_fract_x
  _atom_site_fract_y
  _atom_site_fract_z
  _atom_site_occupancy
  Mg  Mg1       1.0  0.6636529564857483  0.13557851314544678  0.2612881064414978  1.0000
  O   O1        1.0  0.08866472542285919  0.9662168622016906  0.5671522617340088  1.0000
  Mg  Mg2       1.0  0.38839468359947205  0.7446241974830627  0.7437213659286499  1.0000
  Mg  Mg3       1.0  0.3753565549850464  0.7573143839836121  0.4030836522579193  1.0000
  O   O2        1.0  0.6487154960632322  0.9289506673812867  0.6855210661888123  1.0000
  Si  Si1       1.0  0.738977313041687  0.0855497345328331  0.5688310265541077  1.0000
  Ca  Ca1       1.0  0.35990697145462036  0.7407556176185608  0.06214926764369011  1.0000
  Ca  Ca2       1.0  0.04621044918894768  0.4539835751056671  0.5763863325119019  1.0000
  O   O3        1.0  0.642704665660858  0.9581282734870912  0.43619129061698914  1.0000
  O   O4        1.0  0.1998098194599151  0.48309671878814703  0.3417963981628418  1.0000
  O   O5        1.0  0.582474410533905  0.4325004816055298  0.5715617537498474  1.0000
  O   O6        1.0  0.6886177659034729  0.5251486897468567  0.8875395655632019  1.0000
  Si  Si2       1.0  0.02682947926223276  0.3863973319530487  0.9066852331161499  1.0000
  Si  Si3       1.0  0.028772495687007925  0.3795878291130066  0.23193494975566864  1.0000
  O   O7        1.0  0.1204129308462143  0.04542815685272217  0.2508581578731537  1.0000
  O   O8        1.0  0.6806046962738037  0.5149052739143372  0.2550462484359741  1.0000
  O   O9        1.0  0.16789494454860682  0.5255011320114136  0.8000063300132751  1.0000
  O   O10       1.0  0.6202952265739441  0.001736760139465332  0.08952821046113968  1.0000
  O   O11       1.0  0.10198036581277847  0.4556806683540344  0.07262398302555084  1.0000
  O   O12       1.0  0.1691870540380478  0.05068450793623924  0.8836395740509033  1.0000
