data_image0
_chemical_formula_structural       SiCaSiMgO2MgO3CaO3
_chemical_formula_sum              "Si2 Ca2 Mg2 O8"
_cell_length_a       5.2997823862414535
_cell_length_b       5.499345135804446
_cell_length_c       7.8276801109313965
_cell_angle_alpha    78.11249661565422
_cell_angle_beta     79.23249001008963
_cell_angle_gamma    60.20382902052267

_space_group_name_H-M_alt    "P 1"
_space_group_IT_number       1

loop_
  _space_group_symop_operation_xyz
  'x, y, z'

loop_
  _atom_site_type_symbol
  _atom_site_label
  _atom_site_symmetry_multiplicity
  _atom_site_fract_x
  _atom_site_fract_y
  _atom_site_fract_z
  _atom_site_occupancy
  Si  Si1       1.0  0.9787085056304932  0.29101413488388056  0.39027124643325806  1.0000
  Ca  Ca1       1.0  0.27926754951477045  0.5783791542053223  0.592453122138977  1.0000
  Si  Si2       1.0  0.6140514612197876  0.9499238133430481  0.9437167644500732  1.0000
  Mg  Mg1       1.0  0.6443390250205994  0.9493538737297057  0.37051212787628174  1.0000
  O   O1        1.0  0.7634320855140687  0.9461959600448608  0.11447688937187195  1.0000
  O   O2        1.0  0.25519102811813354  0.004435391165316105  0.47567373514175415  1.0000
  Mg  Mg2       1.0  0.18365842103958133  0.6052840352058411  0.02689141221344471  1.0000
  O   O3        1.0  0.9089460372924805  0.7280074357986449  0.8310884237289429  1.0000
  O   O4        1.0  0.07154410332441327  0.33776170015335083  0.17659777402877808  1.0000
  O   O5        1.0  0.681274950504303  0.2581269443035125  0.42767828702926636  1.0000
  Ca  Ca2       1.0  0.9173680543899536  0.27178555727005005  0.948530375957489  1.0000
  O   O6        1.0  0.4769545495510102  0.2870162427425384  0.8552408814430237  1.0000
  O   O7        1.0  0.37111538648605347  0.8400948047637938  0.9764178395271301  1.0000
  O   O8        1.0  0.9157781004905701  0.5675979256629944  0.4754604697227478  1.0000
