data_image0
_chemical_formula_structural       Ca4O4
_chemical_formula_sum              "Ca4 O4"
_cell_length_a       4.853219
_cell_length_b       4.853219
_cell_length_c       4.853219
_cell_angle_alpha    90.0
_cell_angle_beta     90.0
_cell_angle_gamma    90.0

_space_group_name_H-M_alt    "P 1"
_space_group_IT_number       1

loop_
  _space_group_symop_operation_xyz
  'x, y, z'

loop_
  _atom_site_type_symbol
  _atom_site_label
  _atom_site_symmetry_multiplicity
  _atom_site_fract_x
  _atom_site_fract_y
  _atom_site_fract_z
  _atom_site_occupancy
  Ca  Ca1       1.0  6.18146429598454e-08  6.18146429598454e-08  0.006408736139869229  1.0000
  Ca  Ca2       1.0  0.0  0.500000041209762  0.5079841853417288  1.0000
  Ca  Ca3       1.0  0.500000041209762  0.0  0.5079841853417288  1.0000
  Ca  Ca4       1.0  0.500000041209762  0.500000020604881  0.006408777349631245  1.0000
  O   O1        1.0  0.500000041209762  0.0  0.9913575711295947  1.0000
  O   O2        1.0  0.500000041209762  0.500000041209762  0.4942496722278553  1.0000
  O   O3        1.0  0.0  0.0  0.4942496722278553  1.0000
  O   O4        1.0  6.18146429598454e-08  0.500000041209762  0.9913575299198326  1.0000
