data_image0
_chemical_formula_structural       Ca2SiOMg
_chemical_formula_sum              "Ca2 Si1 O1 Mg1"
_cell_length_a       4.320531663345006
_cell_length_b       4.677654068691197
_cell_length_c       4.676321983337402
_cell_angle_alpha    90.08805730341597
_cell_angle_beta     90.02117609296721
_cell_angle_gamma    90.0326576381363

_space_group_name_H-M_alt    "P 1"
_space_group_IT_number       1

loop_
  _space_group_symop_operation_xyz
  'x, y, z'

loop_
  _atom_site_type_symbol
  _atom_site_label
  _atom_site_symmetry_multiplicity
  _atom_site_fract_x
  _atom_site_fract_y
  _atom_site_fract_z
  _atom_site_occupancy
  Ca  Ca1       1.0  0.2675054669380188  0.6883147954940796  0.16676731407642365  1.0000
  Ca  Ca2       1.0  0.2675243616104126  0.1883032023906708  0.6667346954345703  1.0000
  Si  Si1       1.0  0.767212450504303  0.6884798407554626  0.6663322448730469  1.0000
  O   O1        1.0  0.26745033264160156  0.18847040832042694  0.16640950739383698  1.0000
  Mg  Mg1       1.0  0.7672222852706909  0.1883062720298767  0.1669718474149704  1.0000
