data_image0
_chemical_formula_structural       SiCaOCaOMgO4
_chemical_formula_sum              "Si1 Ca2 O6 Mg1"
_cell_length_a       5.398021519212668
_cell_length_b       5.397126398896721
_cell_length_c       5.4005303382873535
_cell_angle_alpha    59.92961756347653
_cell_angle_beta     59.939007272707606
_cell_angle_gamma    59.89879908709146

_space_group_name_H-M_alt    "P 1"
_space_group_IT_number       1

loop_
  _space_group_symop_operation_xyz
  'x, y, z'

loop_
  _atom_site_type_symbol
  _atom_site_label
  _atom_site_symmetry_multiplicity
  _atom_site_fract_x
  _atom_site_fract_y
  _atom_site_fract_z
  _atom_site_occupancy
  Si  Si1       1.0  0.4509149491786957  0.5196970105171204  0.3537929952144623  1.0000
  Ca  Ca1       1.0  0.20065927505493164  0.269902765750885  0.10358577966690063  1.0000
  O   O1        1.0  0.21659892797470098  0.7540006041526794  0.11989491432905197  1.0000
  Ca  Ca2       1.0  0.7006510496139526  0.7697781920433043  0.6035391092300415  1.0000
  O   O2        1.0  0.21652826666831976  0.28623232245445246  0.5874791741371155  1.0000
  Mg  Mg1       1.0  0.9503945708274841  0.020204229280352592  0.8535544872283936  1.0000
  O   O3        1.0  0.6845197081565857  0.28603270649909973  0.5871059894561768  1.0000
  O   O4        1.0  0.6842799186706543  0.28626045584678644  0.11955421417951592  1.0000
  O   O5        1.0  0.684515655040741  0.7535839676856994  0.1195436120033265  1.0000
  O   O6        1.0  0.21689431369304663  0.7535369992256163  0.5874878168106079  1.0000
