data_image0
_chemical_formula_structural       CaMg3O4
_chemical_formula_sum              "Ca1 Mg3 O4"
_cell_length_a       4.831928226260851
_cell_length_b       4.835460783655409
_cell_length_c       5.759261131286621
_cell_angle_alpha    114.81098499349758
_cell_angle_beta     114.84192436877825
_cell_angle_gamma    89.99606927317924

_space_group_name_H-M_alt    "P 1"
_space_group_IT_number       1

loop_
  _space_group_symop_operation_xyz
  'x, y, z'

loop_
  _atom_site_type_symbol
  _atom_site_label
  _atom_site_symmetry_multiplicity
  _atom_site_fract_x
  _atom_site_fract_y
  _atom_site_fract_z
  _atom_site_occupancy
  Ca  Ca1       1.0  0.5370917320251465  0.33086529374122625  0.9541072249412537  1.0000
  Mg  Mg1       1.0  0.03726955130696297  0.8313639760017395  0.9546337127685547  1.0000
  Mg  Mg2       1.0  0.2872939705848694  0.5808550119400024  0.454245924949646  1.0000
  Mg  Mg3       1.0  0.7873620986938477  0.08110884577035905  0.45435425639152527  1.0000
  O   O1        1.0  0.40003538131713867  0.1938430517911911  0.22318236529827118  1.0000
  O   O2        1.0  0.674315869808197  0.9248842597007753  0.6856196522712708  1.0000
  O   O3        1.0  0.1308891922235489  0.46808481216430664  0.6850639581680298  1.0000
  O   O4        1.0  0.943374514579773  0.7373765707015991  0.2235565185546875  1.0000
