data_image0
_chemical_formula_structural       CaOSiOMgCaMgOCaO3Si3O5
_chemical_formula_sum              "Ca3 O11 Si4 Mg2"
_cell_length_a       6.150666779736757
_cell_length_b       5.904974352223299
_cell_length_c       8.808324813842773
_cell_angle_alpha    114.80487833499932
_cell_angle_beta     102.07436892133971
_cell_angle_gamma    105.58807769510747

_space_group_name_H-M_alt    "P 1"
_space_group_IT_number       1

loop_
  _space_group_symop_operation_xyz
  'x, y, z'

loop_
  _atom_site_type_symbol
  _atom_site_label
  _atom_site_symmetry_multiplicity
  _atom_site_fract_x
  _atom_site_fract_y
  _atom_site_fract_z
  _atom_site_occupancy
  Ca  Ca1       1.0  0.9233736395835876  0.6866127848625183  0.8675034642219543  1.0000
  O   O1        1.0  0.21615321934223175  0.9938599467277527  0.25474128127098083  1.0000
  Si  Si1       1.0  0.7209228277206421  0.03875460475683212  0.6050662994384766  1.0000
  O   O2        1.0  0.19046710431575775  0.4627561569213867  0.16829150915145874  1.0000
  Mg  Mg1       1.0  0.07926570624113083  0.5933074355125427  0.5669615864753723  1.0000
  Ca  Ca2       1.0  0.2661656439304352  0.23824377357959747  0.7731526494026184  1.0000
  Mg  Mg2       1.0  0.8659825325012207  0.9316611886024475  0.246460422873497  1.0000
  O   O3        1.0  0.6064962148666382  0.8762083649635314  0.35444462299346924  1.0000
  Ca  Ca3       1.0  0.5249450206756591  0.44422867894172663  0.4044317901134491  1.0000
  O   O4        1.0  0.9482187628746033  0.326602041721344  0.6505373120307922  1.0000
  O   O5        1.0  0.7743268013000488  0.5340468883514404  0.06888806074857712  1.0000
  O   O6        1.0  0.8825145363807678  0.8376200199127197  0.5988610982894897  1.0000
  Si  Si2       1.0  0.33868226408958435  0.7711235880851746  0.2040925770998001  1.0000
  Si  Si3       1.0  0.4778933823108673  0.8087507486343384  0.8763039708137512  1.0000
  Si  Si4       1.0  0.8889347314834595  0.3525620996952057  0.1353805661201477  1.0000
  O   O7        1.0  0.466862291097641  0.5517256259918213  0.6970142126083374  1.0000
  O   O8        1.0  0.8651466965675354  0.33505964279174805  0.31482818722724915  1.0000
  O   O9        1.0  0.386297345161438  0.6960134506225586  0.010787252336740494  1.0000
  O   O10       1.0  0.2775170803070068  0.9133353233337401  0.8257138133049011  1.0000
  O   O11       1.0  0.765661358833313  0.018132980912923813  0.9833687543869019  1.0000
