data_image0
_chemical_formula_structural       MgCa2MgOSiOSiOSiOMgO6
_chemical_formula_sum              "Mg3 Ca2 O10 Si3"
_cell_length_a       5.64263349599947
_cell_length_b       7.028148175783457
_cell_length_c       6.4325971603393555
_cell_angle_alpha    107.87751558520503
_cell_angle_beta     105.63840896805642
_cell_angle_gamma    81.84601396227924

_space_group_name_H-M_alt    "P 1"
_space_group_IT_number       1

loop_
  _space_group_symop_operation_xyz
  'x, y, z'

loop_
  _atom_site_type_symbol
  _atom_site_label
  _atom_site_symmetry_multiplicity
  _atom_site_fract_x
  _atom_site_fract_y
  _atom_site_fract_z
  _atom_site_occupancy
  Mg  Mg1       1.0  0.11910776793956757  0.08513156324625015  0.998370587825775  1.0000
  Ca  Ca1       1.0  0.6014397740364075  0.4987767934799194  0.9833214879035949  1.0000
  Ca  Ca2       1.0  0.5657902956008911  0.10329093039035797  0.5306161642074585  1.0000
  Mg  Mg2       1.0  0.6826726198196411  0.6434822082519531  0.5661860108375549  1.0000
  O   O1        1.0  0.9668402075767517  0.9796134233474731  0.2163107097148895  1.0000
  Si  Si1       1.0  0.07851273566484451  0.3153053820133209  0.7169895768165588  1.0000
  O   O2        1.0  0.4614398181438446  0.053291983902454376  0.16413532197475433  1.0000
  Si  Si2       1.0  0.6780933141708373  0.9857285618782043  0.0358872264623642  1.0000
  O   O3        1.0  0.7259973287582399  0.15318839251995087  0.9186732172966002  1.0000
  Si  Si3       1.0  0.08242079615592957  0.8646426200866698  0.4152304530143737  1.0000
  O   O4        1.0  0.3554095923900604  0.7458945512771606  0.4054043591022491  1.0000
  Mg  Mg3       1.0  0.18594253063201904  0.4794057309627533  0.3344256281852722  1.0000
  O   O5        1.0  0.16451017558574677  0.37832716107368464  0.9943617582321166  1.0000
  O   O6        1.0  0.7937140464782715  0.3793447613716125  0.6187437176704407  1.0000
  O   O7        1.0  0.09601034969091415  0.05607784911990166  0.655537486076355  1.0000
  O   O8        1.0  0.8853657841682434  0.6937125325202942  0.3809964060783387  1.0000
  O   O9        1.0  0.2834879159927368  0.3730340898036956  0.6119006872177124  1.0000
  O   O10       1.0  0.6468914747238159  0.7669867873191833  0.8670946359634398  1.0000
