data_image0
_chemical_formula_structural       CaO2MgOMgO2SiO2Mg
_chemical_formula_sum              "Ca1 O7 Mg3 Si1"
_cell_length_a       3.625235359447596
_cell_length_b       5.294155965950124
_cell_length_c       8.13034725189209
_cell_angle_alpha    110.36619844314224
_cell_angle_beta     102.69879349970644
_cell_angle_gamma    90.12322614611274

_space_group_name_H-M_alt    "P 1"
_space_group_IT_number       1

loop_
  _space_group_symop_operation_xyz
  'x, y, z'

loop_
  _atom_site_type_symbol
  _atom_site_label
  _atom_site_symmetry_multiplicity
  _atom_site_fract_x
  _atom_site_fract_y
  _atom_site_fract_z
  _atom_site_occupancy
  Ca  Ca1       1.0  0.9604676365852356  0.5760580897331238  0.11749853193759918  1.0000
  O   O1        1.0  0.8346311450004578  0.9572778940200807  0.8700542449951172  1.0000
  O   O2        1.0  0.0784844309091568  0.019221302121877674  0.35229745507240295  1.0000
  Mg  Mg1       1.0  0.5592795610427856  0.16748958826065063  0.31264469027519226  1.0000
  O   O3        1.0  0.3520698547363281  0.29246947169303894  0.9022195935249329  1.0000
  Mg  Mg2       1.0  0.23064497113227844  0.33216026425361633  0.6594230532646179  1.0000
  O   O4        1.0  0.5508249998092651  0.5251026749610901  0.3000536859035492  1.0000
  O   O5        1.0  0.2301025688648224  0.7229791879653932  0.6668103337287903  1.0000
  Si  Si1       1.0  0.33985215425491333  0.9671072959899903  0.8821160793304443  1.0000
  O   O6        1.0  0.43271946907043457  0.8783772587776184  0.06183952465653417  1.0000
  O   O7        1.0  0.6897645592689514  0.19319219887256625  0.5775172710418701  1.0000
  Mg  Mg3       1.0  0.6736677289009094  0.7932553291320802  0.5459614992141724  1.0000
