data_image0
_chemical_formula_structural       SiMgOCaOCaO4
_chemical_formula_sum              "Si1 Mg1 O6 Ca2"
_cell_length_a       5.3389146089420505
_cell_length_b       5.341385523024416
_cell_length_c       5.393927097320557
_cell_angle_alpha    119.22148482512576
_cell_angle_beta     90.41411687280157
_cell_angle_gamma    119.82215915439927

_space_group_name_H-M_alt    "P 1"
_space_group_IT_number       1

loop_
  _space_group_symop_operation_xyz
  'x, y, z'

loop_
  _atom_site_type_symbol
  _atom_site_label
  _atom_site_symmetry_multiplicity
  _atom_site_fract_x
  _atom_site_fract_y
  _atom_site_fract_z
  _atom_site_occupancy
  Si  Si1       1.0  0.42644771933555603  0.4393818974494934  0.3612658381462097  1.0000
  Mg  Mg1       1.0  0.9255948066711426  0.4388823807239533  0.860827386379242  1.0000
  O   O1        1.0  0.6560076475143433  0.5035389065742493  0.6574785113334656  1.0000
  Ca  Ca1       1.0  0.17418982088565835  0.9332351684570314  0.6034630537033081  1.0000
  O   O2        1.0  0.1953487992286682  0.3744595050811768  0.06503668427467346  1.0000
  Ca  Ca2       1.0  0.6775947213172913  0.9448327422142029  0.11889705806970598  1.0000
  O   O3        1.0  0.22548051178455353  0.9733430743217468  0.16451559960842124  1.0000
  O   O4        1.0  0.6260385513305665  0.905405104160309  0.5580076575279236  1.0000
  O   O5        1.0  0.6950762271881104  0.4425439238548279  0.16490840911865232  1.0000
  O   O6        1.0  0.15666253864765167  0.4366452395915985  0.5573077201843262  1.0000
