data_image0
_chemical_formula_structural       MgCaOCaSiOMgSi
_chemical_formula_sum              "Mg2 Ca2 O2 Si2"
_cell_length_a       4.032174008151213
_cell_length_b       4.038685144198607
_cell_length_c       9.831645011901855
_cell_angle_alpha    90.0355194886319
_cell_angle_beta     90.03723386554601
_cell_angle_gamma    90.08572137554766

_space_group_name_H-M_alt    "P 1"
_space_group_IT_number       1

loop_
  _space_group_symop_operation_xyz
  'x, y, z'

loop_
  _atom_site_type_symbol
  _atom_site_label
  _atom_site_symmetry_multiplicity
  _atom_site_fract_x
  _atom_site_fract_y
  _atom_site_fract_z
  _atom_site_occupancy
  Mg  Mg1       1.0  0.2780073285102844  0.11705046147108077  0.3522643744945526  1.0000
  Ca  Ca1       1.0  0.27745988965034485  0.6170206665992737  0.9554854631423949  1.0000
  O   O1        1.0  0.7775816917419434  0.6161350607872009  0.8522546291351318  1.0000
  Ca  Ca2       1.0  0.7778297662734985  0.11618588864803314  0.748482346534729  1.0000
  Si  Si1       1.0  0.7774683833122253  0.1163615882396698  0.1723972111940384  1.0000
  O   O2        1.0  0.27807849645614624  0.11703179776668549  0.8524888157844543  1.0000
  Mg  Mg2       1.0  0.7781755328178406  0.6166278719902037  0.35272806882858276  1.0000
  Si  Si2       1.0  0.27803802490234375  0.6171726584434509  0.5314857959747314  1.0000
