data_image0
_chemical_formula_structural       CaSi3MgO
_chemical_formula_sum              "Ca1 Si3 Mg1 O1"
_cell_length_a       3.633758759278285
_cell_length_b       3.6348897511477047
_cell_length_c       10.350332260131836
_cell_angle_alpha    80.06543787246467
_cell_angle_beta     80.02854086699122
_cell_angle_gamma    60.14084872930346

_space_group_name_H-M_alt    "P 1"
_space_group_IT_number       1

loop_
  _space_group_symop_operation_xyz
  'x, y, z'

loop_
  _atom_site_type_symbol
  _atom_site_label
  _atom_site_symmetry_multiplicity
  _atom_site_fract_x
  _atom_site_fract_y
  _atom_site_fract_z
  _atom_site_occupancy
  Ca  Ca1       1.0  0.6587345600128174  0.01725291647017002  0.6909656524658203  1.0000
  Si  Si1       1.0  0.4383642673492431  0.79714697599411  0.35070550441741943  1.0000
  Si  Si2       1.0  0.0719725489616394  0.4324253797531128  0.44779473543167114  1.0000
  Si  Si3       1.0  0.5099974274635315  0.8701155781745911  0.13208644092082977  1.0000
  Mg  Mg1       1.0  0.2321505099534988  0.5905674695968628  0.9706123471260071  1.0000
  O   O1        1.0  0.2962403595447541  0.6552333235740662  0.777249276638031  1.0000
