data_image0
_chemical_formula_structural       OMgCaO2CaSiO
_chemical_formula_sum              "O4 Mg1 Ca2 Si1"
_cell_length_a       5.584989871533429
_cell_length_b       5.59888174770441
_cell_length_c       5.594254016876221
_cell_angle_alpha    79.38229613813128
_cell_angle_beta     126.39893740982258
_cell_angle_gamma    126.34203794372083

_space_group_name_H-M_alt    "P 1"
_space_group_IT_number       1

loop_
  _space_group_symop_operation_xyz
  'x, y, z'

loop_
  _atom_site_type_symbol
  _atom_site_label
  _atom_site_symmetry_multiplicity
  _atom_site_fract_x
  _atom_site_fract_y
  _atom_site_fract_z
  _atom_site_occupancy
  O   O1        1.0  0.06977693736553188  0.5074493288993834  0.6435465216636658  1.0000
  Mg  Mg1       1.0  0.9647737741470337  0.09035059809684753  0.6794865131378174  1.0000
  Ca  Ca1       1.0  0.9652588367462158  0.5903465151786804  0.18039144575595864  1.0000
  O   O2        1.0  0.8615890741348265  0.9522652626037597  0.9928655028343201  1.0000
  O   O3        1.0  0.413748413324356  0.12168393284082411  0.8173854947090149  1.0000
  Ca  Ca2       1.0  0.46479785442352295  0.3403986096382141  0.42934903502464294  1.0000
  Si  Si1       1.0  0.4644736349582672  0.8394812941551207  0.9295491576194763  1.0000
  O   O4        1.0  0.5143693089485168  0.7780701518058777  0.2614215016365051  1.0000
