data_image0
_chemical_formula_structural       SiCaMgSiO5MgO2
_chemical_formula_sum              "Si2 Ca1 Mg2 O7"
_cell_length_a       5.358195807974067
_cell_length_b       5.357632921794174
_cell_length_c       7.978164196014404
_cell_angle_alpha    70.26910166838891
_cell_angle_beta     70.33420654346997
_cell_angle_gamma    59.94842446367116

_space_group_name_H-M_alt    "P 1"
_space_group_IT_number       1

loop_
  _space_group_symop_operation_xyz
  'x, y, z'

loop_
  _atom_site_type_symbol
  _atom_site_label
  _atom_site_symmetry_multiplicity
  _atom_site_fract_x
  _atom_site_fract_y
  _atom_site_fract_z
  _atom_site_occupancy
  Si  Si1       1.0  0.4643624722957611  0.03335784003138542  0.2978482246398926  1.0000
  Ca  Ca1       1.0  0.8910085558891296  0.4586638808250427  0.02246084436774254  1.0000
  Mg  Mg1       1.0  0.6342421174049377  0.20264434814453125  0.7919374108314514  1.0000
  Si  Si2       1.0  0.31565782427787775  0.8843558430671692  0.7464069128036499  1.0000
  O   O1        1.0  0.0002489108592271805  0.1496141254901886  0.8195279836654663  1.0000
  O   O2        1.0  0.39000722765922546  0.9585160613059996  0.5220502614974976  1.0000
  O   O3        1.0  0.2933880686759949  0.5690178275108337  0.8194689154624939  1.0000
  O   O4        1.0  0.48839181661605835  0.767705500125885  0.22472946345806122  1.0000
  O   O5        1.0  0.7801101207733153  0.05614527687430382  0.22455692291259766  1.0000
  Mg  Mg2       1.0  0.14674633741378784  0.7153196334838867  0.25199469923973083  1.0000
  O   O6        1.0  0.19940771162509918  0.34855130314826965  0.22468672692775726  1.0000
  O   O7        1.0  0.5809159874916077  0.8617455363273621  0.8195537328720093  1.0000
