data_image0
_chemical_formula_structural       OCaSiCaMg2SiO
_chemical_formula_sum              "O2 Ca2 Si2 Mg2"
_cell_length_a       4.004457040219534
_cell_length_b       4.007775949582856
_cell_length_c       10.13192367553711
_cell_angle_alpha    90.03245273327425
_cell_angle_beta     89.99157405084858
_cell_angle_gamma    90.01444835579017

_space_group_name_H-M_alt    "P 1"
_space_group_IT_number       1

loop_
  _space_group_symop_operation_xyz
  'x, y, z'

loop_
  _atom_site_type_symbol
  _atom_site_label
  _atom_site_symmetry_multiplicity
  _atom_site_fract_x
  _atom_site_fract_y
  _atom_site_fract_z
  _atom_site_occupancy
  O   O1        1.0  0.02796095609664917  0.22372972965240479  0.825803816318512  1.0000
  Ca  Ca1       1.0  0.027831727638840675  0.7242106795310974  0.9290271997451782  1.0000
  Si  Si1       1.0  0.028334932401776314  0.7239943742752075  0.5042910575866699  1.0000
  Ca  Ca2       1.0  0.5280464291572571  0.22421586513519287  0.7229334712028503  1.0000
  Mg  Mg1       1.0  0.5277883410453796  0.7247633934020996  0.32578086853027344  1.0000
  Mg  Mg2       1.0  0.0281748715788126  0.2244349718093872  0.3259902596473694  1.0000
  Si  Si2       1.0  0.5280675292015076  0.22431917488574984  0.14827536046504974  1.0000
  O   O2        1.0  0.5280387997627258  0.7240023612976074  0.8257101774215698  1.0000
