data_image0
_chemical_formula_structural       CaOSiCaSiO4MgO2
_chemical_formula_sum              "Ca2 O7 Si2 Mg1"
_cell_length_a       5.3911362115738894
_cell_length_b       5.389077957065983
_cell_length_c       7.90406608581543
_cell_angle_alpha    70.16795391957277
_cell_angle_beta     70.14146499569715
_cell_angle_gamma    60.037303378930446

_space_group_name_H-M_alt    "P 1"
_space_group_IT_number       1

loop_
  _space_group_symop_operation_xyz
  'x, y, z'

loop_
  _atom_site_type_symbol
  _atom_site_label
  _atom_site_symmetry_multiplicity
  _atom_site_fract_x
  _atom_site_fract_y
  _atom_site_fract_z
  _atom_site_occupancy
  Ca  Ca1       1.0  0.9995747208595276  0.5342069864273071  0.46545591950416565  1.0000
  O   O1        1.0  0.11871754378080371  0.2304707020521164  0.2657928466796875  1.0000
  Si  Si1       1.0  0.4212192296981811  0.9562052488327027  0.19942885637283325  1.0000
  Ca  Ca2       1.0  0.7753296494483948  0.310303658246994  0.13743026554584503  1.0000
  Si  Si2       1.0  0.5723065733909607  0.10819926857948303  0.7446115612983704  1.0000
  O   O2        1.0  0.38336512446403503  0.6540613174438477  0.26495134830474854  1.0000
  O   O3        1.0  0.3013102412223816  0.4231679141521454  0.6756311058998108  1.0000
  O   O4        1.0  0.4975893497467041  0.032388292253017426  0.9711093902587891  1.0000
  O   O5        1.0  0.8882184624671936  0.13224028050899506  0.6753837466239929  1.0000
  Mg  Mg1       1.0  0.2618166506290436  0.7979688048362732  0.6764838099479675  1.0000
  O   O6        1.0  0.6953714489936829  0.9188544750213623  0.2654443979263306  1.0000
  O   O7        1.0  0.5976850390434266  0.8374515175819397  0.6760982275009155  1.0000
