data_image0
_chemical_formula_structural       CaMgSiO3MgO
_chemical_formula_sum              "Ca1 Mg2 Si1 O4"
_cell_length_a       5.139586364397178
_cell_length_b       5.139444923973968
_cell_length_c       5.141260623931885
_cell_angle_alpha    90.72135247288158
_cell_angle_beta     119.53208320702993
_cell_angle_gamma    119.54911511594568

_space_group_name_H-M_alt    "P 1"
_space_group_IT_number       1

loop_
  _space_group_symop_operation_xyz
  'x, y, z'

loop_
  _atom_site_type_symbol
  _atom_site_label
  _atom_site_symmetry_multiplicity
  _atom_site_fract_x
  _atom_site_fract_y
  _atom_site_fract_z
  _atom_site_occupancy
  Ca  Ca1       1.0  0.5004141926765442  0.4061784148216247  0.1729346513748169  1.0000
  Mg  Mg1       1.0  0.9991515874862671  0.6561986804008484  0.9237574338912964  1.0000
  Si  Si1       1.0  0.49816831946372975  0.9041003584861754  0.6719314455986023  1.0000
  O   O1        1.0  0.10958804935216894  0.577947437763214  0.3447635769844055  1.0000
  O   O2        1.0  0.8910514116287231  0.9671066999435424  0.7327664494514465  1.0000
  O   O3        1.0  0.49965134263038635  0.8417862057685851  0.0003968477249145508  1.0000
  Mg  Mg2       1.0  0.9999173879623413  0.15610411763191223  0.4231100082397461  1.0000
  O   O4        1.0  0.4995381534099579  0.23487257957458493  0.6105080246925354  1.0000
