data_image0
_chemical_formula_structural       SiOCaMgCaO3
_chemical_formula_sum              "Si1 O4 Ca2 Mg1"
_cell_length_a       4.860999575253549
_cell_length_b       4.860407237919912
_cell_length_c       5.412220478057861
_cell_angle_alpha    116.78531810464119
_cell_angle_beta     116.84757183523396
_cell_angle_gamma    89.9874963584605

_space_group_name_H-M_alt    "P 1"
_space_group_IT_number       1

loop_
  _space_group_symop_operation_xyz
  'x, y, z'

loop_
  _atom_site_type_symbol
  _atom_site_label
  _atom_site_symmetry_multiplicity
  _atom_site_fract_x
  _atom_site_fract_y
  _atom_site_fract_z
  _atom_site_occupancy
  Si  Si1       1.0  0.6948089599609375  0.6827870607376099  0.15917415916919708  1.0000
  O   O1        1.0  0.8196616768836976  0.3956505656242371  0.94800466299057  1.0000
  Ca  Ca1       1.0  0.44477027654647827  0.9331610202789307  0.6595910787582397  1.0000
  Mg  Mg1       1.0  0.9446014165878296  0.43351161479949957  0.6595882177352905  1.0000
  Ca  Ca2       1.0  0.19568674266338348  0.18412019312381744  0.15943339467048645  1.0000
  O   O2        1.0  0.6184439063072205  0.5579773187637329  0.3705346882343292  1.0000
  O   O3        1.0  0.35888245701789856  0.7597091794013977  0.948396325111389  1.0000
  O   O4        1.0  0.9814856648445129  0.01895100064575672  0.3705839514732361  1.0000
