data_image0
_chemical_formula_structural       MgOCaO
_chemical_formula_sum              "Mg1 O2 Ca1"
_cell_length_a       3.4800442274921055
_cell_length_b       3.478465115972996
_cell_length_c       4.919379234313965
_cell_angle_alpha    90.0928316055594
_cell_angle_beta     90.0981659871487
_cell_angle_gamma    90.11134141376952

_space_group_name_H-M_alt    "P 1"
_space_group_IT_number       1

loop_
  _space_group_symop_operation_xyz
  'x, y, z'

loop_
  _atom_site_type_symbol
  _atom_site_label
  _atom_site_symmetry_multiplicity
  _atom_site_fract_x
  _atom_site_fract_y
  _atom_site_fract_z
  _atom_site_occupancy
  Mg  Mg1       1.0  0.8862320780754089  0.20224371552467343  0.9875392913818358  1.0000
  O   O1        1.0  0.38653990626335144  0.2023826390504837  0.20374347269535065  1.0000
  Ca  Ca1       1.0  0.3859841525554657  0.7025161981582642  0.4874217212200165  1.0000
  O   O2        1.0  0.886215329170227  0.7020285725593566  0.7709313035011292  1.0000
