data_image0
_chemical_formula_structural       CaSiMgSiO
_chemical_formula_sum              "Ca1 Si2 Mg1 O1"
_cell_length_a       3.599697930016636
_cell_length_b       5.372645391506999
_cell_length_c       5.411305904388428
_cell_angle_alpha    112.27444247011012
_cell_angle_beta     109.41234873568791
_cell_angle_gamma    90.16872230470916

_space_group_name_H-M_alt    "P 1"
_space_group_IT_number       1

loop_
  _space_group_symop_operation_xyz
  'x, y, z'

loop_
  _atom_site_type_symbol
  _atom_site_label
  _atom_site_symmetry_multiplicity
  _atom_site_fract_x
  _atom_site_fract_y
  _atom_site_fract_z
  _atom_site_occupancy
  Ca  Ca1       1.0  0.9574649333953857  0.617658793926239  0.6293346881866455  1.0000
  Si  Si1       1.0  0.7110845446586609  0.7883849143981934  0.13857632875442505  1.0000
  Mg  Mg1       1.0  0.6492549180984497  0.23995776474475858  0.01262127887457605  1.0000
  Si  Si2       1.0  0.3526709973812103  0.03958379849791527  0.4199270009994507  1.0000
  O   O1        1.0  0.30768516659736633  0.32877981662750244  0.33022540807724  1.0000
