data_image0
_chemical_formula_structural       MgCa2Mg2OSiO4
_chemical_formula_sum              "Mg3 Ca2 O5 Si1"
_cell_length_a       3.511915351617331
_cell_length_b       4.881547518585396
_cell_length_c       9.166289329528809
_cell_angle_alpha    90.7203757197581
_cell_angle_beta     101.02267147340714
_cell_angle_gamma    89.97790002112929

_space_group_name_H-M_alt    "P 1"
_space_group_IT_number       1

loop_
  _space_group_symop_operation_xyz
  'x, y, z'

loop_
  _atom_site_type_symbol
  _atom_site_label
  _atom_site_symmetry_multiplicity
  _atom_site_fract_x
  _atom_site_fract_y
  _atom_site_fract_z
  _atom_site_occupancy
  Mg  Mg1       1.0  0.4226483106613159  0.5846801996231079  0.9879100918769836  1.0000
  Ca  Ca1       1.0  0.30944502353668213  0.06327685713768005  0.7632859945297241  1.0000
  Ca  Ca2       1.0  0.733622133731842  0.5587922930717468  0.6142728924751282  1.0000
  Mg  Mg2       1.0  0.06479287892580032  0.5770111680030823  0.27402159571647644  1.0000
  Mg  Mg3       1.0  0.6168561577796936  0.0853041559457779  0.3786807060241699  1.0000
  O   O1        1.0  0.7271899580955505  0.05055752024054527  0.6015509963035583  1.0000
  Si  Si1       1.0  0.9608261585235596  0.04962320253252983  0.06430241465568541  1.0000
  O   O2        1.0  0.3114149272441864  0.5592452287673951  0.7681517004966737  1.0000
  O   O3        1.0  0.061700526624917984  0.0061903013847768315  0.2663481831550598  1.0000
  O   O4        1.0  0.6099885702133179  0.5082310438156128  0.3656303286552429  1.0000
  O   O5        1.0  0.9624704122543335  0.4073523581027985  0.06783732026815414  1.0000
