data_image0
_chemical_formula_structural       SiCaMgCaMgCaO8Si
_chemical_formula_sum              "Si2 Ca3 Mg2 O8"
_cell_length_a       5.268799218215106
_cell_length_b       5.649039942690095
_cell_length_c       7.132768154144287
_cell_angle_alpha    90.02799261945061
_cell_angle_beta     97.67825550734887
_cell_angle_gamma    117.3126355521196

_space_group_name_H-M_alt    "P 1"
_space_group_IT_number       1

loop_
  _space_group_symop_operation_xyz
  'x, y, z'

loop_
  _atom_site_type_symbol
  _atom_site_label
  _atom_site_symmetry_multiplicity
  _atom_site_fract_x
  _atom_site_fract_y
  _atom_site_fract_z
  _atom_site_occupancy
  Si  Si1       1.0  0.21635851263999942  0.8173536062240601  0.6186956167221068  1.0000
  Ca  Ca1       1.0  0.6070705056190491  0.564708948135376  0.6081685423851012  1.0000
  Mg  Mg1       1.0  0.034504782408475876  0.20198549330234528  0.7863659262657164  1.0000
  Ca  Ca2       1.0  0.9732178449630738  0.7314140200614929  0.12960465252399447  1.0000
  Mg  Mg2       1.0  0.5464003682136536  0.09324420988559723  0.9514388442039489  1.0000
  Ca  Ca3       1.0  0.7900682687759399  0.14823123812675476  0.36893814802169794  1.0000
  O   O1        1.0  0.4855490326881409  0.4217258095741272  0.923459768295288  1.0000
  O   O2        1.0  0.0024067123886197805  0.3058086633682251  0.07225310802459717  1.0000
  O   O3        1.0  0.577947199344635  0.9891229271888732  0.6653875708580016  1.0000
  O   O4        1.0  0.4623232781887055  0.8037698268890381  0.1434744894504547  1.0000
  O   O5        1.0  0.11779306083917619  0.49199599027633667  0.5947542786598206  1.0000
  O   O6        1.0  0.09437067806720734  0.873199462890625  0.8141086697578429  1.0000
  O   O7        1.0  0.04127848893404007  0.8983943462371825  0.4415006637573242  1.0000
  O   O8        1.0  0.5397073030471802  0.3986864686012268  0.29664871096611023  1.0000
  Si  Si2       1.0  0.3644427657127381  0.4788574874401093  0.11917330324649811  1.0000
