data_image0
_chemical_formula_structural       Mg2CaSiOSiMgCaO5SiO6
_chemical_formula_sum              "Mg3 Ca2 Si3 O12"
_cell_length_a       5.378376895756885
_cell_length_b       6.855392605236943
_cell_length_c       6.728837490081787
_cell_angle_alpha    84.49262957337392
_cell_angle_beta     79.13974223316856
_cell_angle_gamma    79.12022064654202

_space_group_name_H-M_alt    "P 1"
_space_group_IT_number       1

loop_
  _space_group_symop_operation_xyz
  'x, y, z'

loop_
  _atom_site_type_symbol
  _atom_site_label
  _atom_site_symmetry_multiplicity
  _atom_site_fract_x
  _atom_site_fract_y
  _atom_site_fract_z
  _atom_site_occupancy
  Mg  Mg1       1.0  0.07081551849842073  0.644270658493042  0.516941249370575  1.0000
  Mg  Mg2       1.0  0.1196073442697525  0.09544699639081955  0.6106404066085815  1.0000
  Ca  Ca1       1.0  0.5705514550209045  0.4098706841468811  0.7432705760002136  1.0000
  Si  Si1       1.0  0.544273853302002  0.3332471549510956  0.2426908910274506  1.0000
  O   O1        1.0  0.6356469988822937  0.10187499970197678  0.3109029531478882  1.0000
  Si  Si2       1.0  0.6131862998008729  0.9149749279022217  0.8145881295204163  1.0000
  Mg  Mg3       1.0  0.5699406266212464  0.8035139441490172  0.33995991945266724  1.0000
  Ca  Ca2       1.0  0.07470958679914474  0.00923846010118723  0.10851565748453142  1.0000
  O   O2        1.0  0.2963009476661682  0.3502246439456939  0.11613956838846208  1.0000
  O   O3        1.0  0.8437355160713196  0.03319636359810829  0.8301876783370972  1.0000
  O   O4        1.0  0.6777406334877014  0.7562813758850098  0.6342336535453796  1.0000
  O   O5        1.0  0.9771631360054016  0.3710002601146698  0.5612164735794067  1.0000
  O   O6        1.0  0.5070006251335144  0.8129204511642455  0.035341449081897736  1.0000
  Si  Si3       1.0  0.03919760137796402  0.5128470659255981  0.056237407028675086  1.0000
  O   O7        1.0  0.47065186500549316  0.49848473072052  0.4135942757129669  1.0000
  O   O8        1.0  0.13432642817497256  0.581961989402771  0.820277214050293  1.0000
  O   O9        1.0  0.7973973155021667  0.38587337732315063  0.06585472077131271  1.0000
  O   O10       1.0  0.9520729780197144  0.6891186237335205  0.21367512643337253  1.0000
  O   O11       1.0  0.3697996139526367  0.09388047456741333  0.7810189723968506  1.0000
  O   O12       1.0  0.194372296333313  0.8970224857330322  0.41982114315032965  1.0000
