data_image0
_chemical_formula_structural       OCaSiCaMg
_chemical_formula_sum              "O1 Ca2 Si1 Mg1"
_cell_length_a       4.6751199148089455
_cell_length_b       4.673041173462069
_cell_length_c       4.356266021728516
_cell_angle_alpha    89.9442271779017
_cell_angle_beta     89.96268235154629
_cell_angle_gamma    89.91770554644046

_space_group_name_H-M_alt    "P 1"
_space_group_IT_number       1

loop_
  _space_group_symop_operation_xyz
  'x, y, z'

loop_
  _atom_site_type_symbol
  _atom_site_label
  _atom_site_symmetry_multiplicity
  _atom_site_fract_x
  _atom_site_fract_y
  _atom_site_fract_z
  _atom_site_occupancy
  O   O1        1.0  0.6555434465408325  0.739595890045166  0.15646588802337646  1.0000
  Ca  Ca1       1.0  0.6558026075363159  0.2397052496671677  0.1566796898841858  1.0000
  Si  Si1       1.0  0.15573002398014069  0.2396730333566666  0.6558939218521118  1.0000
  Ca  Ca2       1.0  0.1554938554763794  0.7392920851707458  0.1565670520067215  1.0000
  Mg  Mg1       1.0  0.6561431288719177  0.7392340302467346  0.6559573411941528  1.0000
