data_image0
_chemical_formula_structural       CaMgCaSiO4
_chemical_formula_sum              "Ca2 Mg1 Si1 O4"
_cell_length_a       4.739919517230454
_cell_length_b       4.746791358995473
_cell_length_c       5.44235372543335
_cell_angle_alpha    114.8825380875521
_cell_angle_beta     114.73325836233619
_cell_angle_gamma    87.69818672108306

_space_group_name_H-M_alt    "P 1"
_space_group_IT_number       1

loop_
  _space_group_symop_operation_xyz
  'x, y, z'

loop_
  _atom_site_type_symbol
  _atom_site_label
  _atom_site_symmetry_multiplicity
  _atom_site_fract_x
  _atom_site_fract_y
  _atom_site_fract_z
  _atom_site_occupancy
  Ca  Ca1       1.0  0.8924016952514648  0.4677501320838928  0.24715326726436615  1.0000
  Mg  Mg1       1.0  0.39960888028144836  0.9597252607345581  0.24729351699352264  1.0000
  Ca  Ca2       1.0  0.6389768123626709  0.7205466032028198  0.7469696998596191  1.0000
  Si  Si1       1.0  0.13639310002326965  0.22424885630607608  0.7472724318504333  1.0000
  O   O1        1.0  0.4794582724571228  0.2199414968490601  0.7034667730331421  1.0000
  O   O2        1.0  0.14075277745723724  0.8807955980300903  0.7909992337226868  1.0000
  O   O3        1.0  0.8509036898612976  0.9775474667549134  0.25974252820014954  1.0000
  O   O4        1.0  0.38348937034606934  0.5096807479858398  0.23465101420879358  1.0000
