data_image0
_chemical_formula_structural       OCaMgO2SiO3
_chemical_formula_sum              "O6 Ca1 Mg1 Si1"
_cell_length_a       5.115579705618987
_cell_length_b       5.11956989041221
_cell_length_c       4.914051532745361
_cell_angle_alpha    89.92903683756629
_cell_angle_beta     90.07507993955373
_cell_angle_gamma    119.92252295796446

_space_group_name_H-M_alt    "P 1"
_space_group_IT_number       1

loop_
  _space_group_symop_operation_xyz
  'x, y, z'

loop_
  _atom_site_type_symbol
  _atom_site_label
  _atom_site_symmetry_multiplicity
  _atom_site_fract_x
  _atom_site_fract_y
  _atom_site_fract_z
  _atom_site_occupancy
  O   O1        1.0  0.9490875601768494  0.522320032119751  0.7040072679519653  1.0000
  Ca  Ca1       1.0  0.3341020941734314  0.8662359118461609  0.407600462436676  1.0000
  Mg  Mg1       1.0  0.000819109845906496  0.20002876222133636  0.9075213670730591  1.0000
  O   O2        1.0  0.6780152916908264  0.8240126967430115  0.7021355628967285  1.0000
  O   O3        1.0  0.3756124675273895  0.2522779107093811  0.7022746801376343  1.0000
  Si  Si1       1.0  0.6677638292312622  0.5324484705924988  0.9074712991714478  1.0000
  O   O4        1.0  0.677642822265625  0.2513018250465393  0.11111781001091003  1.0000
  O   O5        1.0  0.3757933974266052  0.5225604772567749  0.11212020367383957  1.0000
  O   O6        1.0  0.9471367001533508  0.8246997594833374  0.11277800053358078  1.0000
