data_image0
_chemical_formula_structural       OMgCa2O2SiO3
_chemical_formula_sum              "O6 Mg1 Ca2 Si1"
_cell_length_a       5.398393274368148
_cell_length_b       5.3919811262260255
_cell_length_c       5.3980937004089355
_cell_angle_alpha    59.94015773461297
_cell_angle_beta     59.931645275615345
_cell_angle_gamma    59.90981673555267

_space_group_name_H-M_alt    "P 1"
_space_group_IT_number       1

loop_
  _space_group_symop_operation_xyz
  'x, y, z'

loop_
  _atom_site_type_symbol
  _atom_site_label
  _atom_site_symmetry_multiplicity
  _atom_site_fract_x
  _atom_site_fract_y
  _atom_site_fract_z
  _atom_site_occupancy
  O   O1        1.0  0.5841341018676758  0.9554359316825868  0.687125563621521  1.0000
  Mg  Mg1       1.0  0.318030834197998  0.6894443035125732  0.9532678723335265  1.0000
  Ca  Ca1       1.0  0.5680962204933165  0.9393699169158937  0.2028093934059143  1.0000
  Ca  Ca2       1.0  0.06817314028739926  0.4393201470375061  0.7029353976249695  1.0000
  O   O2        1.0  0.05217403918504715  0.9554645419120789  0.2196199297904968  1.0000
  O   O3        1.0  0.5841652154922485  0.4234479069709778  0.6865227818489075  1.0000
  Si  Si1       1.0  0.8178347349166871  0.18918178975582126  0.4531696140766143  1.0000
  O   O4        1.0  0.05186455324292183  0.4235917329788208  0.219148576259613  1.0000
  O   O5        1.0  0.051845330744981766  0.9559701085090638  0.6872763633728026  1.0000
  O   O6        1.0  0.5845548510551453  0.42297497391700745  0.2188753932714462  1.0000
