data_image0
_chemical_formula_structural       CaOSiCa2O2MgOMgO2CaOSiOCaO
_chemical_formula_sum              "Ca5 O9 Si2 Mg2"
_cell_length_a       5.725197324381792
_cell_length_b       6.4109494714999355
_cell_length_c       8.141252517700195
_cell_angle_alpha    81.6464279040434
_cell_angle_beta     69.46343437722177
_cell_angle_gamma    68.00429040604945

_space_group_name_H-M_alt    "P 1"
_space_group_IT_number       1

loop_
  _space_group_symop_operation_xyz
  'x, y, z'

loop_
  _atom_site_type_symbol
  _atom_site_label
  _atom_site_symmetry_multiplicity
  _atom_site_fract_x
  _atom_site_fract_y
  _atom_site_fract_z
  _atom_site_occupancy
  Ca  Ca1       1.0  0.6448870301246643  0.38205620646476746  0.4083772599697113  1.0000
  O   O1        1.0  0.2806902527809143  0.219206377863884  0.4334208071231842  1.0000
  Si  Si1       1.0  0.025121904909610707  0.46546894311904913  0.5446874499320984  1.0000
  Ca  Ca2       1.0  0.368581086397171  0.20426543056964877  0.1344448775053024  1.0000
  Ca  Ca3       1.0  0.9042081832885742  0.906816065311432  0.6808479428291321  1.0000
  O   O2        1.0  0.45003098249435425  0.5241162776947023  0.027384895831346512  1.0000
  O   O3        1.0  0.32700484991073603  0.890247404575348  0.6832749247550964  1.0000
  Mg  Mg1       1.0  0.4109348654747009  0.5711437463760377  0.788311779499054  1.0000
  O   O4        1.0  0.7836073040962219  0.34601569175720215  0.6634721755981445  1.0000
  Mg  Mg2       1.0  0.6429034471511841  0.6882470846176147  0.0834764242172241  1.0000
  O   O5        1.0  0.492105096578598  0.7922138571739197  0.33356738090515137  1.0000
  O   O6        1.0  0.9419453144073486  0.4145333468914032  0.13513360917568207  1.0000
  Ca  Ca4       1.0  0.9602764844894409  0.23959584534168243  0.8989979624748231  1.0000
  O   O7        1.0  0.7546849846839905  0.993318259716034  0.4409356415271759  1.0000
  Si  Si2       1.0  0.47106075286865234  0.9590650796890259  0.4795948565006256  1.0000
  O   O8        1.0  0.15090824663639069  0.4975518584251404  0.6952766180038452  1.0000
  Ca  Ca5       1.0  0.014635534957051277  0.7435247302055359  0.20624294877052307  1.0000
  O   O9        1.0  0.7801855802536011  0.9376975297927856  0.9850074052810669  1.0000
