data_image0
_chemical_formula_structural       SiCaO2
_chemical_formula_sum              "Si1 Ca1 O2"
_cell_length_a       3.530675999622166
_cell_length_b       3.535146796880727
_cell_length_c       6.076462745666504
_cell_angle_alpha    73.08362313139676
_cell_angle_beta     73.12992434806509
_cell_angle_gamma    60.15596392790295

_space_group_name_H-M_alt    "P 1"
_space_group_IT_number       1

loop_
  _space_group_symop_operation_xyz
  'x, y, z'

loop_
  _atom_site_type_symbol
  _atom_site_label
  _atom_site_symmetry_multiplicity
  _atom_site_fract_x
  _atom_site_fract_y
  _atom_site_fract_z
  _atom_site_occupancy
  Si  Si1       1.0  0.8472067713737488  0.44385525584220886  0.702870786190033  1.0000
  Ca  Ca1       1.0  0.3480639159679413  0.9437033534049989  0.20246638357639313  1.0000
  O   O1        1.0  0.9445159435272218  0.5394118428230286  0.4114934504032135  1.0000
  O   O2        1.0  0.7511911988258362  0.3469319641590119  0.9930846095085143  1.0000
