data_image0
_chemical_formula_structural       MgCaOMgCaO2SiO3SiO3
_chemical_formula_sum              "Mg2 Ca2 O9 Si2"
_cell_length_a       5.116382137648256
_cell_length_b       5.342108504756977
_cell_length_c       8.384077072143555
_cell_angle_alpha    98.12371948586633
_cell_angle_beta     87.48406144155699
_cell_angle_gamma    118.67796578237545

_space_group_name_H-M_alt    "P 1"
_space_group_IT_number       1

loop_
  _space_group_symop_operation_xyz
  'x, y, z'

loop_
  _atom_site_type_symbol
  _atom_site_label
  _atom_site_symmetry_multiplicity
  _atom_site_fract_x
  _atom_site_fract_y
  _atom_site_fract_z
  _atom_site_occupancy
  Mg  Mg1       1.0  0.9568230509757996  0.4307233095169068  0.3980882167816162  1.0000
  Ca  Ca1       1.0  0.6169552803039551  0.7145135998725892  0.750170111656189  1.0000
  O   O1        1.0  0.7867097854614258  0.3953365385532379  0.19167163968086243  1.0000
  Mg  Mg2       1.0  0.25971877574920654  0.10643925517797471  0.9083282947540283  1.0000
  Ca  Ca2       1.0  0.6403394341468811  0.766217052936554  0.21208253502845764  1.0000
  O   O2        1.0  0.8619807958602905  0.22130277752876282  0.6403045654296875  1.0000
  O   O3        1.0  0.11422421038150787  0.022693835198879242  0.6779193878173829  1.0000
  Si  Si1       1.0  0.27854618430137634  0.07711685448884964  0.4967036545276642  1.0000
  O   O4        1.0  0.26303043961524963  0.4755973517894745  0.9914646148681641  1.0000
  O   O5        1.0  0.9272888898849487  0.7461325526237488  0.9689925312995911  1.0000
  O   O6        1.0  0.05682630464434624  0.11125113815069199  0.3735470175743103  1.0000
  Si  Si2       1.0  0.9224230051040649  0.4438584744930268  0.007747021038085222  1.0000
  O   O7        1.0  0.6706748008728027  0.1551785171031952  0.8898831605911255  1.0000
  O   O8        1.0  0.32463595271110535  0.7985589504241943  0.42283305525779724  1.0000
  O   O9        1.0  0.6050002574920654  0.3788091242313385  0.5342772603034973  1.0000
