data_image0
_chemical_formula_structural       CaO3SiOCaO2Mg
_chemical_formula_sum              "Ca2 O6 Si1 Mg1"
_cell_length_a       5.37627806921109
_cell_length_b       5.377658303572094
_cell_length_c       5.37744665145874
_cell_angle_alpha    59.99302425879313
_cell_angle_beta     60.004067245520915
_cell_angle_gamma    59.97809393003629

_space_group_name_H-M_alt    "P 1"
_space_group_IT_number       1

loop_
  _space_group_symop_operation_xyz
  'x, y, z'

loop_
  _atom_site_type_symbol
  _atom_site_label
  _atom_site_symmetry_multiplicity
  _atom_site_fract_x
  _atom_site_fract_y
  _atom_site_fract_z
  _atom_site_occupancy
  Ca  Ca1       1.0  0.3353171646595001  0.05282800644636154  0.113413006067276  1.0000
  O   O1        1.0  0.8511265516281129  0.5687084197998046  0.09717361629009238  1.0000
  O   O2        1.0  0.3192436695098877  0.03677770495414734  0.62882000207901  1.0000
  O   O3        1.0  0.8515353202819824  0.036659300327301025  0.09689800441265106  1.0000
  Si  Si1       1.0  0.08553660660982138  0.8033064603805541  0.8631758093833923  1.0000
  O   O4        1.0  0.31949442625045776  0.5687087178230286  0.6289829611778259  1.0000
  Ca  Ca2       1.0  0.8353850841522217  0.5527681112289429  0.6131476759910582  1.0000
  O   O5        1.0  0.31931185722351074  0.5688241124153137  0.09700924158096313  1.0000
  O   O6        1.0  0.8511584401130677  0.0370359867811203  0.6288974881172179  1.0000
  Mg  Mg1       1.0  0.5854342579841614  0.30295661091804504  0.3628051280975342  1.0000
