data_image0
_chemical_formula_structural       CaSiMgSiO4CaO3
_chemical_formula_sum              "Ca2 Si2 Mg1 O7"
_cell_length_a       5.41602342678338
_cell_length_b       5.409136792268566
_cell_length_c       7.63178014755249
_cell_angle_alpha    69.36062516584362
_cell_angle_beta     69.30036848237069
_cell_angle_gamma    60.165771757968244

_space_group_name_H-M_alt    "P 1"
_space_group_IT_number       1

loop_
  _space_group_symop_operation_xyz
  'x, y, z'

loop_
  _atom_site_type_symbol
  _atom_site_label
  _atom_site_symmetry_multiplicity
  _atom_site_fract_x
  _atom_site_fract_y
  _atom_site_fract_z
  _atom_site_occupancy
  Ca  Ca1       1.0  0.28788068890571594  0.2741089463233948  0.5797592997550963  1.0000
  Si  Si1       1.0  0.42727577686309814  0.41235500574111933  0.15859502553939817  1.0000
  Mg  Mg1       1.0  0.005538358353078453  0.9916332364082335  0.42475625872611994  1.0000
  Si  Si2       1.0  0.5835946202278137  0.5701329112052917  0.6916826367378234  1.0000
  O   O1        1.0  0.30932959914207453  0.6930783987045288  0.248993381857872  1.0000
  O   O2        1.0  0.17474067211151126  0.2954208552837372  0.24751949310302732  1.0000
  O   O3        1.0  0.3025507628917694  0.6912369132041931  0.6007134914398192  1.0000
  O   O4        1.0  0.7037047147750854  0.8199384808540344  0.6025645732879638  1.0000
  Ca  Ca2       1.0  0.7239534854888916  0.7081475257873535  0.26974502205848694  1.0000
  O   O5        1.0  0.5055622458457947  0.49152061343193054  0.9255747199058532  1.0000
  O   O6        1.0  0.7088224291801453  0.16007433831691742  0.2480566650629043  1.0000
  O   O7        1.0  0.8334909081459045  0.2899857759475708  0.6006029248237609  1.0000
