data_image0
_chemical_formula_structural       CaMgOSi
_chemical_formula_sum              "Ca1 Mg1 O1 Si1"
_cell_length_a       3.144468004012119
_cell_length_b       3.2204167588688684
_cell_length_c       7.237457275390625
_cell_angle_alpha    89.96249793437173
_cell_angle_beta     102.26138068878602
_cell_angle_gamma    89.90489211876171

_space_group_name_H-M_alt    "P 1"
_space_group_IT_number       1

loop_
  _space_group_symop_operation_xyz
  'x, y, z'

loop_
  _atom_site_type_symbol
  _atom_site_label
  _atom_site_symmetry_multiplicity
  _atom_site_fract_x
  _atom_site_fract_y
  _atom_site_fract_z
  _atom_site_occupancy
  Ca  Ca1       1.0  0.3694019615650177  0.12789371609687805  0.32420140504837036  1.0000
  Mg  Mg1       1.0  0.052264805883169174  0.6266831755638123  0.6939752697944641  1.0000
  O   O1        1.0  0.916603684425354  0.6270353198051453  0.4217657744884491  1.0000
  Si  Si1       1.0  0.6649447679519653  0.1265134960412979  0.9217078685760498  1.0000
