data_image0
_chemical_formula_structural       CaMgSiOCa2SiO5Mg2O3MgO2
_chemical_formula_sum              "Ca3 Mg4 Si2 O11"
_cell_length_a       5.55188771623367
_cell_length_b       6.06838225704506
_cell_length_c       9.363728523254395
_cell_angle_alpha    75.51848428627271
_cell_angle_beta     83.51350875721633
_cell_angle_gamma    93.24690381658189

_space_group_name_H-M_alt    "P 1"
_space_group_IT_number       1

loop_
  _space_group_symop_operation_xyz
  'x, y, z'

loop_
  _atom_site_type_symbol
  _atom_site_label
  _atom_site_symmetry_multiplicity
  _atom_site_fract_x
  _atom_site_fract_y
  _atom_site_fract_z
  _atom_site_occupancy
  Ca  Ca1       1.0  0.8267233967781067  0.22773516178131106  0.8632741570472717  1.0000
  Mg  Mg1       1.0  0.49199995398521423  0.5128226280212403  0.3338031470775604  1.0000
  Si  Si1       1.0  0.3013554811477661  0.2399132698774338  0.13372504711151123  1.0000
  O   O1        1.0  0.5394573211669922  0.11665888130664825  0.06835690885782242  1.0000
  Ca  Ca2       1.0  0.4380086064338684  0.9344286918640137  0.515556812286377  1.0000
  Ca  Ca3       1.0  0.31103798747062683  0.8464403152465821  0.9736375212669373  1.0000
  Si  Si2       1.0  0.8294304609298706  0.8167275190353394  0.7486449480056763  1.0000
  O   O2        1.0  0.1945006549358368  0.09285061061382294  0.30521607398986816  1.0000
  O   O3        1.0  0.6920649409294128  0.7738940119743347  0.3632960617542267  1.0000
  O   O4        1.0  0.7733033895492554  0.5701280236244203  0.7120561003684998  1.0000
  O   O5        1.0  0.3676309287548065  0.5089749693870546  0.1329757273197174  1.0000
  O   O6        1.0  0.07865612208843231  0.18647587299346924  0.042117826640605927  1.0000
  Mg  Mg2       1.0  0.9375388622283936  0.6877059936523438  0.4920993745326996  1.0000
  Mg  Mg3       1.0  0.7915847897529602  0.07228394597768784  0.21963073313236237  1.0000
  O   O7        1.0  0.012477101758122444  0.9505068063735962  0.5953357219696045  1.0000
  O   O8        1.0  0.6883088946342468  0.24811072647571564  0.3708113729953766  1.0000
  O   O9        1.0  0.19765417277812958  0.5042136311531068  0.466717004776001  1.0000
  Mg  Mg4       1.0  0.0028815269470214844  0.24159176647663116  0.44309160113334656  1.0000
  O   O10       1.0  0.5831268429756165  0.9577769041061402  0.7526386380195618  1.0000
  O   O11       1.0  0.9583253860473633  0.8335134387016297  0.8922030925750732  1.0000
