data_image0
_chemical_formula_structural       CaMgO3MgSiO
_chemical_formula_sum              "Ca1 Mg2 O4 Si1"
_cell_length_a       4.867020451391436
_cell_length_b       4.873374711160966
_cell_length_c       5.44728422164917
_cell_angle_alpha    116.55023650950466
_cell_angle_beta     116.49357227206796
_cell_angle_gamma    90.16180398147134

_space_group_name_H-M_alt    "P 1"
_space_group_IT_number       1

loop_
  _space_group_symop_operation_xyz
  'x, y, z'

loop_
  _atom_site_type_symbol
  _atom_site_label
  _atom_site_symmetry_multiplicity
  _atom_site_fract_x
  _atom_site_fract_y
  _atom_site_fract_z
  _atom_site_occupancy
  Ca  Ca1       1.0  0.9710153341293335  0.8846610784530641  0.8993092179298403  1.0000
  Mg  Mg1       1.0  0.7219398021697998  0.13420046865940094  0.3995314836502076  1.0000
  O   O1        1.0  0.15155640244483948  0.4623629152774811  0.6578049659729004  1.0000
  O   O2        1.0  0.54924076795578  0.06487078964710236  0.6589741110801697  1.0000
  O   O3        1.0  0.7905855178833008  0.7052533626556396  0.1415821313858033  1.0000
  Mg  Mg2       1.0  0.22134919464588165  0.6348499059677124  0.39969360828399664  1.0000
  Si  Si1       1.0  0.4713975787162781  0.3851052522659302  0.8995997905731202  1.0000
  O   O4        1.0  0.3936751186847687  0.3069445490837097  0.14180456101894384  1.0000
