data_image0
_chemical_formula_structural       Si2OMg2CaO6
_chemical_formula_sum              "Si2 O7 Mg2 Ca1"
_cell_length_a       5.247669901620114
_cell_length_b       5.243504647525283
_cell_length_c       7.630595684051514
_cell_angle_alpha    70.07102683481978
_cell_angle_beta     70.01717781725483
_cell_angle_gamma    60.08951894438941

_space_group_name_H-M_alt    "P 1"
_space_group_IT_number       1

loop_
  _space_group_symop_operation_xyz
  'x, y, z'

loop_
  _atom_site_type_symbol
  _atom_site_label
  _atom_site_symmetry_multiplicity
  _atom_site_fract_x
  _atom_site_fract_y
  _atom_site_fract_z
  _atom_site_occupancy
  Si  Si1       1.0  0.8315739035606384  0.30049824714660645  0.5572171807289122  1.0000
  Si  Si2       1.0  0.6761761903762817  0.14321622252464292  0.026998784393072125  1.0000
  O   O1        1.0  0.9162095189094543  0.5857175588607787  0.47813600301742554  1.0000
  Mg  Mg1       1.0  0.2542630732059479  0.7226768136024474  0.2895876467227935  1.0000
  Mg  Mg2       1.0  0.9772453308105469  0.44432398676872253  0.12104926258325575  1.0000
  Ca  Ca1       1.0  0.4907546043395997  0.9597507119178772  0.5784604549407958  1.0000
  O   O2        1.0  0.5400042533874512  0.3847662210464477  0.4787102043628692  1.0000
  O   O3        1.0  0.36530157923698425  0.09246452897787094  0.09854001551866531  1.0000
  O   O4        1.0  0.964708685874939  0.8332000970840454  0.09964659065008162  1.0000
  O   O5        1.0  0.7539710998535157  0.2215949147939682  0.7915117144584655  1.0000
  O   O6        1.0  0.6236659288406371  0.4340201318264007  0.09865231812000273  1.0000
  O   O7        1.0  0.11583354324102402  0.010859697125852108  0.4778382778167724  1.0000
