data_image0
_chemical_formula_structural       CaSi2O
_chemical_formula_sum              "Ca1 Si2 O1"
_cell_length_a       3.789540308453068
_cell_length_b       3.7922596729999154
_cell_length_c       5.675438404083252
_cell_angle_alpha    90.09725756368877
_cell_angle_beta     90.1114575261542
_cell_angle_gamma    59.97720673828229

_space_group_name_H-M_alt    "P 1"
_space_group_IT_number       1

loop_
  _space_group_symop_operation_xyz
  'x, y, z'

loop_
  _atom_site_type_symbol
  _atom_site_label
  _atom_site_symmetry_multiplicity
  _atom_site_fract_x
  _atom_site_fract_y
  _atom_site_fract_z
  _atom_site_occupancy
  Ca  Ca1       1.0  0.9733672142028809  0.22962740063667295  0.7025483250617981  1.0000
  Si  Si1       1.0  0.6410273313522339  0.8968637585639954  0.3013128936290741  1.0000
  Si  Si2       1.0  0.30740556120872503  0.5631574392318726  0.14714282751083374  1.0000
  O   O1        1.0  0.30702957510948187  0.5638601183891296  0.8511925339698792  1.0000
