data_image0
_chemical_formula_structural       OMgSiCaO2SiO3
_chemical_formula_sum              "O6 Mg1 Si2 Ca1"
_cell_length_a       4.880087869400963
_cell_length_b       4.885628974842903
_cell_length_c       5.5505757331848145
_cell_angle_alpha    63.96207742796887
_cell_angle_beta     64.08088878201806
_cell_angle_gamma    60.00071524349942

_space_group_name_H-M_alt    "P 1"
_space_group_IT_number       1

loop_
  _space_group_symop_operation_xyz
  'x, y, z'

loop_
  _atom_site_type_symbol
  _atom_site_label
  _atom_site_symmetry_multiplicity
  _atom_site_fract_x
  _atom_site_fract_y
  _atom_site_fract_z
  _atom_site_occupancy
  O   O1        1.0  0.34950417280197144  0.2643343210220337  0.6743749976158142  1.0000
  Mg  Mg1       1.0  0.9813079833984375  0.06119481846690177  0.04908468574285507  1.0000
  Si  Si1       1.0  0.5023465156555176  0.5836131572723389  0.48125299811363215  1.0000
  Ca  Ca1       1.0  0.7121933698654176  0.7929785847663879  0.853129208087921  1.0000
  O   O2        1.0  0.90549498796463  0.36303552985191345  0.25142550468444824  1.0000
  O   O3        1.0  0.7828070521354674  0.4300695061683655  0.6740323305130005  1.0000
  Si  Si2       1.0  0.18397416174411774  0.2635231912136078  0.4391940236091613  1.0000
  O   O4        1.0  0.18394117057323456  0.8630959391593933  0.6730095744132996  1.0000
  O   O5        1.0  0.5511229634284975  0.9861235618591307  0.25181907415390015  1.0000
  O   O6        1.0  0.2822679281234741  0.6314271688461304  0.25150424242019653  1.0000
