data_image0
_chemical_formula_structural       OMgCaSiO3Si
_chemical_formula_sum              "O4 Mg1 Ca1 Si2"
_cell_length_a       4.971105107951786
_cell_length_b       4.9821764091729275
_cell_length_c       4.965113162994385
_cell_angle_alpha    100.03460958045942
_cell_angle_beta     114.50691169800396
_cell_angle_gamma    114.58351164558867

_space_group_name_H-M_alt    "P 1"
_space_group_IT_number       1

loop_
  _space_group_symop_operation_xyz
  'x, y, z'

loop_
  _atom_site_type_symbol
  _atom_site_label
  _atom_site_symmetry_multiplicity
  _atom_site_fract_x
  _atom_site_fract_y
  _atom_site_fract_z
  _atom_site_occupancy
  O   O1        1.0  0.08933388441801075  0.4862973093986512  0.8610760569572449  1.0000
  Mg  Mg1       1.0  0.5866492390632629  0.07579050958156586  0.5891997814178467  1.0000
  Ca  Ca1       1.0  0.08574408292770386  0.3241952359676361  0.33934107422828674  1.0000
  Si  Si1       1.0  0.5854949355125427  0.5742976665496826  0.08924483507871628  1.0000
  O   O2        1.0  0.7267913222312927  0.8073420524597168  0.8199503421783447  1.0000
  O   O3        1.0  0.44312918186187744  0.16487029194831848  0.17747986316680908  1.0000
  O   O4        1.0  0.08491916954517355  0.8429608941078185  0.4998269379138946  1.0000
  Si  Si2       1.0  0.08656130731105804  0.8249251246452332  0.8402721285820007  1.0000
