data_image0
_chemical_formula_structural       CaSiO3Mg
_chemical_formula_sum              "Ca1 Si1 O3 Mg1"
_cell_length_a       3.0945851825577324
_cell_length_b       3.1784920791813054
_cell_length_c       7.869906425476074
_cell_angle_alpha    101.61668551311217
_cell_angle_beta     101.31729817112563
_cell_angle_gamma    90.0453824899519

_space_group_name_H-M_alt    "P 1"
_space_group_IT_number       1

loop_
  _space_group_symop_operation_xyz
  'x, y, z'

loop_
  _atom_site_type_symbol
  _atom_site_label
  _atom_site_symmetry_multiplicity
  _atom_site_fract_x
  _atom_site_fract_y
  _atom_site_fract_z
  _atom_site_occupancy
  Ca  Ca1       1.0  0.10097777098417282  0.1896754056215286  0.7013131380081177  1.0000
  Si  Si1       1.0  0.4199039340019226  0.5089200139045715  0.3411788046360016  1.0000
  O   O1        1.0  0.3023025691509247  0.39374175667762756  0.10452468693256378  1.0000
  O   O2        1.0  0.6454318165779114  0.7342828512191771  0.7892794609069824  1.0000
  O   O3        1.0  0.4685552418231964  0.054433617740869515  0.4336548447608948  1.0000
  Mg  Mg1       1.0  0.7723673582077026  0.861598253250122  0.040936052799224826  1.0000
