data_image0
_chemical_formula_structural       SiOMgSiOCaMgCaSi2O10
_chemical_formula_sum              "Si4 O12 Mg2 Ca2"
_cell_length_a       5.555966112844315
_cell_length_b       7.06034695831509
_cell_length_c       7.064786434173584
_cell_angle_alpha    87.72243517743732
_cell_angle_beta     74.98491799614074
_cell_angle_gamma    75.05931304796871

_space_group_name_H-M_alt    "P 1"
_space_group_IT_number       1

loop_
  _space_group_symop_operation_xyz
  'x, y, z'

loop_
  _atom_site_type_symbol
  _atom_site_label
  _atom_site_symmetry_multiplicity
  _atom_site_fract_x
  _atom_site_fract_y
  _atom_site_fract_z
  _atom_site_occupancy
  Si  Si1       1.0  0.5350269079208374  0.8259772062301636  0.3409550487995147  1.0000
  O   O1        1.0  0.6176590323448181  0.8822336196899414  0.11349768191576003  1.0000
  Mg  Mg1       1.0  0.9808261990547181  0.8016331791877745  0.9632873535156249  1.0000
  Si  Si2       1.0  0.9291664361953735  0.2577531933784485  0.10553411394357677  1.0000
  O   O2        1.0  0.30618488788604736  0.7068515419960022  0.37180384993553156  1.0000
  Ca  Ca1       1.0  0.4807929992675781  0.9345614314079285  0.8308023810386657  1.0000
  Mg  Mg2       1.0  0.4811030328273773  0.28321462869644165  0.4824582934379577  1.0000
  Ca  Ca2       1.0  0.9810069799423219  0.14917762577533722  0.6151194572448728  1.0000
  Si  Si3       1.0  0.4288575053215027  0.4246359765529632  0.9385787844657897  1.0000
  Si  Si4       1.0  0.035610828548669815  0.65942645072937  0.507660984992981  1.0000
  O   O3        1.0  0.417568564414978  0.01178085058927536  0.4995263218879699  1.0000
  O   O4        1.0  0.6598548293113708  0.3941117227077484  0.056427024304866756  1.0000
  O   O5        1.0  0.9173570871353149  0.8181121945381165  0.692944049835205  1.0000
  O   O6        1.0  0.11789606511592864  0.431858092546463  0.5633201599121094  1.0000
  O   O7        1.0  0.806618332862854  0.6905650496482849  0.3878104388713836  1.0000
  O   O8        1.0  0.5454718470573425  0.2665241062641144  0.7525572776794432  1.0000
  O   O9        1.0  0.34280145168304443  0.6520968675613403  0.8839552402496337  1.0000
  O   O10       1.0  0.16028335690498352  0.37502405047416687  0.07537693530321121  1.0000
  O   O11       1.0  0.8436557650566101  0.20229831337928772  0.3324617147445678  1.0000
  O   O12       1.0  0.04545785486698151  0.07166464626789093  0.9462159276008604  1.0000
