data_image0
_chemical_formula_structural       CaMgOSi
_chemical_formula_sum              "Ca1 Mg1 O1 Si1"
_cell_length_a       3.222310041721024
_cell_length_b       3.3094104508507454
_cell_length_c       7.119427680969238
_cell_angle_alpha    103.4568484149418
_cell_angle_beta     89.97912261641527
_cell_angle_gamma    90.00494756129928

_space_group_name_H-M_alt    "P 1"
_space_group_IT_number       1

loop_
  _space_group_symop_operation_xyz
  'x, y, z'

loop_
  _atom_site_type_symbol
  _atom_site_label
  _atom_site_symmetry_multiplicity
  _atom_site_fract_x
  _atom_site_fract_y
  _atom_site_fract_z
  _atom_site_occupancy
  Ca  Ca1       1.0  0.9802866578102111  0.7988836169242858  0.890350341796875  1.0000
  Mg  Mg1       1.0  0.48095414042472834  0.10787089914083481  0.5058601498603821  1.0000
  O   O1        1.0  0.9803791642189025  0.18906727433204648  0.6698253154754639  1.0000
  Si  Si1       1.0  0.47989082336425776  0.44373682141304016  0.18010865151882172  1.0000
