data_image0
_chemical_formula_structural       CaOSi
_chemical_formula_sum              "Ca1 O1 Si1"
_cell_length_a       3.9318616753708304
_cell_length_b       3.9174882030824123
_cell_length_c       4.20892858505249
_cell_angle_alpha    89.98673827775777
_cell_angle_beta     89.99220925851657
_cell_angle_gamma    120.06109504293562

_space_group_name_H-M_alt    "P 1"
_space_group_IT_number       1

loop_
  _space_group_symop_operation_xyz
  'x, y, z'

loop_
  _atom_site_type_symbol
  _atom_site_label
  _atom_site_symmetry_multiplicity
  _atom_site_fract_x
  _atom_site_fract_y
  _atom_site_fract_z
  _atom_site_occupancy
  Ca  Ca1       1.0  0.13280229270458216  0.8228445053100585  0.5168198347091675  1.0000
  O   O1        1.0  0.7998731136322021  0.15545201301574707  0.016077004373073578  1.0000
  Si  Si1       1.0  0.4665702581405639  0.4894435703754425  0.016945432871580124  1.0000
