data_image0
_chemical_formula_structural       SiMgSiO
_chemical_formula_sum              "Si2 Mg1 O1"
_cell_length_a       3.63552401099232
_cell_length_b       3.639187167164088
_cell_length_c       5.771762371063232
_cell_angle_alpha    90.03763001692171
_cell_angle_beta     90.01970077091546
_cell_angle_gamma    120.11560107886486

_space_group_name_H-M_alt    "P 1"
_space_group_IT_number       1

loop_
  _space_group_symop_operation_xyz
  'x, y, z'

loop_
  _atom_site_type_symbol
  _atom_site_label
  _atom_site_symmetry_multiplicity
  _atom_site_fract_x
  _atom_site_fract_y
  _atom_site_fract_z
  _atom_site_occupancy
  Si  Si1       1.0  0.14658063650131226  0.28649216890335083  0.12262698262929916  1.0000
  Mg  Mg1       1.0  0.4796179831027985  0.9528501629829407  0.7273114919662476  1.0000
  Si  Si2       1.0  0.47939243912696844  0.9531700611114502  0.27362746000289917  1.0000
  O   O1        1.0  0.14626352488994598  0.2862703800201416  0.8209575414657593  1.0000
