data_image0
_chemical_formula_structural       CaSi2MgOCaOSi
_chemical_formula_sum              "Ca2 Si3 Mg1 O2"
_cell_length_a       4.008525315142087
_cell_length_b       4.014864956724412
_cell_length_c       9.392457008361816
_cell_angle_alpha    90.0841162762417
_cell_angle_beta     90.05506065949935
_cell_angle_gamma    90.13200956105173

_space_group_name_H-M_alt    "P 1"
_space_group_IT_number       1

loop_
  _space_group_symop_operation_xyz
  'x, y, z'

loop_
  _atom_site_type_symbol
  _atom_site_label
  _atom_site_symmetry_multiplicity
  _atom_site_fract_x
  _atom_site_fract_y
  _atom_site_fract_z
  _atom_site_occupancy
  Ca  Ca1       1.0  0.7641639709472656  0.42896807193756104  0.16808001697063446  1.0000
  Si  Si1       1.0  0.2636720538139343  0.9290757179260254  0.9409331679344177  1.0000
  Si  Si2       1.0  0.7636350393295288  0.9295469522476196  0.7792641520500183  1.0000
  Mg  Mg1       1.0  0.2641839385032654  0.4293001592159271  0.7793416976928711  1.0000
  O   O1        1.0  0.2638363838195801  0.42867836356163025  0.27883440256118774  1.0000
  Ca  Ca2       1.0  0.2634643614292145  0.9284614324569702  0.3882485330104828  1.0000
  O   O2        1.0  0.7637431025505066  0.9289509654045105  0.2776448130607605  1.0000
  Si  Si3       1.0  0.76380455493927  0.428997278213501  0.6154998540878296  1.0000
