data_image0
_chemical_formula_structural       Mg2SiO2CaO2
_chemical_formula_sum              "Mg2 Si1 O4 Ca1"
_cell_length_a       3.137175516967156
_cell_length_b       5.468037225458153
_cell_length_c       5.410638332366943
_cell_angle_alpha    109.34185457784425
_cell_angle_beta     89.97977831393945
_cell_angle_gamma    90.05094888392367

_space_group_name_H-M_alt    "P 1"
_space_group_IT_number       1

loop_
  _space_group_symop_operation_xyz
  'x, y, z'

loop_
  _atom_site_type_symbol
  _atom_site_label
  _atom_site_symmetry_multiplicity
  _atom_site_fract_x
  _atom_site_fract_y
  _atom_site_fract_z
  _atom_site_occupancy
  Mg  Mg1       1.0  0.1883130818605423  0.0749330073595047  0.3691372573375702  1.0000
  Mg  Mg2       1.0  0.6883465051651001  0.07544880360364914  0.8694354295730591  1.0000
  Si  Si1       1.0  0.6880868673324585  0.5750450491905212  0.3694932460784912  1.0000
  O   O1        1.0  0.18850144743919373  0.8406147956848145  0.6149659156799316  1.0000
  O   O2        1.0  0.6881549954414368  0.8451370000839232  0.13681666553020477  1.0000
  Ca  Ca1       1.0  0.1882897913455963  0.5750149488449097  0.8690038919448853  1.0000
  O   O3        1.0  0.18809805810451508  0.3097386956214905  0.12411314994096755  1.0000
  O   O4        1.0  0.6882026195526123  0.30497074127197266  0.6023004055023193  1.0000
