data_image0
_chemical_formula_structural       CaSiOMgO2MgO
_chemical_formula_sum              "Ca1 Si1 O4 Mg2"
_cell_length_a       5.140990819953961
_cell_length_b       5.141763655837023
_cell_length_c       5.1367902755737305
_cell_angle_alpha    91.23279702748316
_cell_angle_beta     119.3069037666099
_cell_angle_gamma    119.29684946784822

_space_group_name_H-M_alt    "P 1"
_space_group_IT_number       1

loop_
  _space_group_symop_operation_xyz
  'x, y, z'

loop_
  _atom_site_type_symbol
  _atom_site_label
  _atom_site_symmetry_multiplicity
  _atom_site_fract_x
  _atom_site_fract_y
  _atom_site_fract_z
  _atom_site_occupancy
  Ca  Ca1       1.0  0.2912575304508209  0.2248465120792389  0.7928236126899719  1.0000
  Si  Si1       1.0  0.2921096086502075  0.7257367968559265  0.2940122187137604  1.0000
  O   O1        1.0  0.2917135953903198  0.7798811793327332  0.9632822275161742  1.0000
  Mg  Mg1       1.0  0.7916922569274902  0.9757283926010132  0.04312941431999215  1.0000
  O   O2        1.0  0.2911697030067444  0.3961445391178131  0.3473770022392273  1.0000
  O   O3        1.0  0.6734442710876465  0.05459854006767273  0.6220871210098267  1.0000
  Mg  Mg2       1.0  0.7914620637893677  0.4757428765296936  0.5438130497932434  1.0000
  O   O4        1.0  0.9079956412315369  0.6715015172958374  0.2400242984294891  1.0000
