data_image0
_chemical_formula_structural       SiMgCaMgO3MgO3
_chemical_formula_sum              "Si1 Mg3 Ca1 O6"
_cell_length_a       6.04728009704338
_cell_length_b       6.108435783334205
_cell_length_c       5.869029521942139
_cell_angle_alpha    60.35017401694998
_cell_angle_beta     60.476502940741156
_cell_angle_gamma    59.35011883140243

_space_group_name_H-M_alt    "P 1"
_space_group_IT_number       1

loop_
  _space_group_symop_operation_xyz
  'x, y, z'

loop_
  _atom_site_type_symbol
  _atom_site_label
  _atom_site_symmetry_multiplicity
  _atom_site_fract_x
  _atom_site_fract_y
  _atom_site_fract_z
  _atom_site_occupancy
  Si  Si1       1.0  0.16720335185527804  0.8139431476593018  0.5825465321540833  1.0000
  Mg  Mg1       1.0  0.6500495672225952  0.9914581179618835  0.052325643599033356  1.0000
  Ca  Ca1       1.0  0.016046710312366486  0.3221553862094879  0.007663768716156483  1.0000
  Mg  Mg2       1.0  0.3357647657394409  0.6554913520812988  0.07949686795473099  1.0000
  O   O1        1.0  0.6257745027542114  0.3089575469493866  0.08334673941135406  1.0000
  O   O2        1.0  0.4088163673877716  0.9868891835212706  0.9246841669082644  1.0000
  O   O3        1.0  0.9182994961738585  0.06787656247615814  0.4708147346973419  1.0000
  Mg  Mg3       1.0  0.531585156917572  0.14333190023899078  0.5119414329528809  1.0000
  O   O4        1.0  0.4394131302833557  0.8840141892433167  0.465471774339676  1.0000
  O   O5        1.0  0.04680030792951584  0.732286810874939  0.9323276281356812  1.0000
  O   O6        1.0  0.23929806053638455  0.5467403531074524  0.5103718042373657  1.0000
