data_image0
_chemical_formula_structural       CaMg2OSiOSiO5
_chemical_formula_sum              "Ca1 Mg2 O7 Si2"
_cell_length_a       5.356040166511081
_cell_length_b       5.35245042396319
_cell_length_c       7.965195178985596
_cell_angle_alpha    70.31762233065612
_cell_angle_beta     70.2797434346902
_cell_angle_gamma    59.94796387714301

_space_group_name_H-M_alt    "P 1"
_space_group_IT_number       1

loop_
  _space_group_symop_operation_xyz
  'x, y, z'

loop_
  _atom_site_type_symbol
  _atom_site_label
  _atom_site_symmetry_multiplicity
  _atom_site_fract_x
  _atom_site_fract_y
  _atom_site_fract_z
  _atom_site_occupancy
  Ca  Ca1       1.0  0.8640936017036439  0.47996011376380926  0.6346629858016968  1.0000
  Mg  Mg1       1.0  0.12063278257846828  0.735726535320282  0.865111470222473  1.0000
  Mg  Mg2       1.0  0.6075901389122009  0.2224193513393402  0.4059930741786957  1.0000
  O   O1        1.0  0.4606293737888337  0.3692490756511688  0.8375080823898314  1.0000
  Si  Si1       1.0  0.29004049301147466  0.9048036336898804  0.3599419593811035  1.0000
  O   O2        1.0  0.9743546843528749  0.8830504417419434  0.43260791897773737  1.0000
  Si  Si2       1.0  0.43846732378005987  0.053790245205163956  0.9103927612304686  1.0000
  O   O3        1.0  0.1729871928691864  0.07685208320617676  0.8377071022987365  1.0000
  O   O4        1.0  0.7539396882057191  0.7894558310508728  0.8367673158645629  1.0000
  O   O5        1.0  0.2672208249568939  0.17057909071445465  0.4320938289165496  1.0000
  O   O6        1.0  0.36405351758003246  0.9795765876770018  0.1353723108768463  1.0000
  O   O7        1.0  0.554344117641449  0.5895829796791077  0.4330341517925262  1.0000
