data_image0
_chemical_formula_structural       CaSiMgCaO4SiO3
_chemical_formula_sum              "Ca2 Si2 Mg1 O7"
_cell_length_a       5.433862684412046
_cell_length_b       5.428835338286375
_cell_length_c       7.680830478668213
_cell_angle_alpha    69.30795752131574
_cell_angle_beta     69.3046849338294
_cell_angle_gamma    59.98964132291657

_space_group_name_H-M_alt    "P 1"
_space_group_IT_number       1

loop_
  _space_group_symop_operation_xyz
  'x, y, z'

loop_
  _atom_site_type_symbol
  _atom_site_label
  _atom_site_symmetry_multiplicity
  _atom_site_fract_x
  _atom_site_fract_y
  _atom_site_fract_z
  _atom_site_occupancy
  Ca  Ca1       1.0  0.1376870572566986  0.983025074005127  0.648807466030121  1.0000
  Si  Si1       1.0  0.4339902997016907  0.27991485595703125  0.7605837583541871  1.0000
  Mg  Mg1       1.0  0.854845404624939  0.700817883014679  0.4946520626544953  1.0000
  Ca  Ca2       1.0  0.5722063183784484  0.41826957464218145  0.33968508243560797  1.0000
  O   O1        1.0  0.1589493155479431  0.4035647809505463  0.3169610798358918  1.0000
  O   O2        1.0  0.1532396376132965  0.39806443452835083  0.6692556142807008  1.0000
  O   O3        1.0  0.5519554018974304  0.5313668847084045  0.6711281538009645  1.0000
  O   O4        1.0  0.0235934816300869  0.0055370787158608445  0.31667584180831915  1.0000
  Si  Si2       1.0  0.27662715315818787  0.12311068922281267  0.22756075859069827  1.0000
  O   O5        1.0  0.3549880087375641  0.20162497460842133  0.9940698742866517  1.0000
  O   O6        1.0  0.6855092644691468  0.9985788464546205  0.6706154346466066  1.0000
  O   O7        1.0  0.5567700862884521  0.870110273361206  0.3167171180248261  1.0000
