data_image0
_chemical_formula_structural       MgCaSiO
_chemical_formula_sum              "Mg1 Ca1 Si1 O1"
_cell_length_a       3.167974535225009
_cell_length_b       3.166284403060267
_cell_length_c       7.368117332458496
_cell_angle_alpha    89.95938337011683
_cell_angle_beta     89.94899465078093
_cell_angle_gamma    119.89006526937163

_space_group_name_H-M_alt    "P 1"
_space_group_IT_number       1

loop_
  _space_group_symop_operation_xyz
  'x, y, z'

loop_
  _atom_site_type_symbol
  _atom_site_label
  _atom_site_symmetry_multiplicity
  _atom_site_fract_x
  _atom_site_fract_y
  _atom_site_fract_z
  _atom_site_occupancy
  Mg  Mg1       1.0  0.9314404726028442  0.4302061200141907  0.5835891962051392  1.0000
  Ca  Ca1       1.0  0.265094518661499  0.09695594012737274  0.21710577607154846  1.0000
  Si  Si1       1.0  0.5988227128982545  0.7639596462249757  0.8876219987869263  1.0000
  O   O1        1.0  0.5983590483665466  0.7635802030563353  0.42113447189331055  1.0000
