data_image0
_chemical_formula_structural       CaMgSiO
_chemical_formula_sum              "Ca1 Mg1 Si1 O1"
_cell_length_a       3.4070745544530388
_cell_length_b       3.4099658560066946
_cell_length_c       7.334709644317627
_cell_angle_alpha    90.03967907296976
_cell_angle_beta     90.1396252378219
_cell_angle_gamma    120.05842985701777

_space_group_name_H-M_alt    "P 1"
_space_group_IT_number       1

loop_
  _space_group_symop_operation_xyz
  'x, y, z'

loop_
  _atom_site_type_symbol
  _atom_site_label
  _atom_site_symmetry_multiplicity
  _atom_site_fract_x
  _atom_site_fract_y
  _atom_site_fract_z
  _atom_site_occupancy
  Ca  Ca1       1.0  0.7855390310287476  0.58365797996521  0.5031061172485352  1.0000
  Mg  Mg1       1.0  0.11890213191509247  0.2512935698032379  0.8970904946327208  1.0000
  Si  Si1       1.0  0.4527587294578553  0.918624520301819  0.16433024406433103  1.0000
  O   O1        1.0  0.11907249689102173  0.2500711977481842  0.6410589218139647  1.0000
