data_image0
_chemical_formula_structural       CaMg2OCaO2Mg3OSiO4
_chemical_formula_sum              "Ca2 Mg5 O8 Si1"
_cell_length_a       5.199489311777947
_cell_length_b       5.899069550606202
_cell_length_c       6.885163307189941
_cell_angle_alpha    89.41378790472113
_cell_angle_beta     90.13752152861663
_cell_angle_gamma    90.01367654303905

_space_group_name_H-M_alt    "P 1"
_space_group_IT_number       1

loop_
  _space_group_symop_operation_xyz
  'x, y, z'

loop_
  _atom_site_type_symbol
  _atom_site_label
  _atom_site_symmetry_multiplicity
  _atom_site_fract_x
  _atom_site_fract_y
  _atom_site_fract_z
  _atom_site_occupancy
  Ca  Ca1       1.0  0.18147793412208557  0.6629546284675598  0.37508237361907953  1.0000
  Mg  Mg1       1.0  0.6975994110107422  0.482972115278244  0.623242199420929  1.0000
  Mg  Mg2       1.0  0.6977840662002563  0.0004429817199707031  0.37901353836059565  1.0000
  O   O1        1.0  0.09096558392047882  0.044690392911434174  0.41572007536888117  1.0000
  Ca  Ca2       1.0  0.6880142092704773  0.9869590997695923  0.8772742152214049  1.0000
  O   O2        1.0  0.5887870192527771  0.6170562505722046  0.8687731027603148  1.0000
  O   O3        1.0  0.1467467099428177  0.0010095834732055664  0.8362709879875182  1.0000
  Mg  Mg3       1.0  0.7019503712654114  0.4870302677154541  0.1253274381160736  1.0000
  Mg  Mg4       1.0  0.20370130240917206  0.64066481590271  0.8692298531532286  1.0000
  Mg  Mg5       1.0  0.19964736700057983  0.16217294335365295  0.12596754729747772  1.0000
  O   O4        1.0  0.5797731280326843  0.1681416779756546  0.14675608277320862  1.0000
  Si  Si1       1.0  0.20207734405994415  0.1562477946281433  0.625571608543396  1.0000
  O   O5        1.0  0.08325907588005066  0.47856616973876953  0.10651078075170516  1.0000
  O   O6        1.0  0.0883411094546318  0.42448303103446966  0.6434229016304016  1.0000
  O   O7        1.0  0.64652019739151  0.6604332327842712  0.3813574612140655  1.0000
  O   O8        1.0  0.527004063129425  0.17159177362918854  0.604301929473877  1.0000
