data_image0
_chemical_formula_structural       OMgOCaSiOMgO
_chemical_formula_sum              "O4 Mg2 Ca1 Si1"
_cell_length_a       5.070848392367963
_cell_length_b       5.077427604136389
_cell_length_c       5.072255611419678
_cell_angle_alpha    95.86520900308008
_cell_angle_beta     116.67688341392004
_cell_angle_gamma    116.70764834931289

_space_group_name_H-M_alt    "P 1"
_space_group_IT_number       1

loop_
  _space_group_symop_operation_xyz
  'x, y, z'

loop_
  _atom_site_type_symbol
  _atom_site_label
  _atom_site_symmetry_multiplicity
  _atom_site_fract_x
  _atom_site_fract_y
  _atom_site_fract_z
  _atom_site_occupancy
  O   O1        1.0  0.6982955932617188  0.46068498492240906  0.03071424551308155  1.0000
  Mg  Mg1       1.0  0.17887236177921295  0.14914003014564514  0.6574392914772034  1.0000
  O   O2        1.0  0.11615067720413208  0.7771872282028198  0.8015289306640625  1.0000
  Ca  Ca1       1.0  0.677841067314148  0.8981920480728149  0.9063534736633301  1.0000
  Si  Si1       1.0  0.17765215039253235  0.6481366157531738  0.1561277806758881  1.0000
  O   O3        1.0  0.23977318406105042  0.35515233874320984  0.3473987877368927  1.0000
  Mg  Mg2       1.0  0.6783418655395508  0.3977316617965698  0.4067787826061249  1.0000
  O   O4        1.0  0.6569393277168274  0.00206148624420166  0.4477050304412842  1.0000
