data_image0
_chemical_formula_structural       CaMgSiO2CaO2SiO3
_chemical_formula_sum              "Ca2 Mg1 Si2 O7"
_cell_length_a       5.494620780768714
_cell_length_b       5.492203258515924
_cell_length_c       7.508528232574463
_cell_angle_alpha    68.56303021394012
_cell_angle_beta     68.56932775446413
_cell_angle_gamma    60.02271138136996

_space_group_name_H-M_alt    "P 1"
_space_group_IT_number       1

loop_
  _space_group_symop_operation_xyz
  'x, y, z'

loop_
  _atom_site_type_symbol
  _atom_site_label
  _atom_site_symmetry_multiplicity
  _atom_site_fract_x
  _atom_site_fract_y
  _atom_site_fract_z
  _atom_site_occupancy
  Ca  Ca1       1.0  0.7665482759475708  0.23016686737537384  0.9489253759384155  1.0000
  Mg  Mg1       1.0  0.05177674442529678  0.5148429870605469  0.09416526556015017  1.0000
  Si  Si1       1.0  0.6301220655441284  0.09469377249479294  0.35588011145591736  1.0000
  O   O1        1.0  0.5527067184448242  0.014217006042599676  0.5943781137466431  1.0000
  O   O2        1.0  0.3566729426383973  0.357160598039627  0.2656671106815338  1.0000
  Ca  Ca2       1.0  0.3358369469642639  0.7998008728027343  0.23899038136005407  1.0000
  O   O3        1.0  0.36944979429244995  0.2103942185640335  0.9237340688705444  1.0000
  O   O4        1.0  0.7327597737312317  0.8215879201889038  0.2639610767364502  1.0000
  Si  Si2       1.0  0.4720243513584137  0.9357075095176696  0.8333066701889038  1.0000
  O   O5        1.0  0.7456614971160889  0.6727133989334105  0.9236969947814941  1.0000
  O   O6        1.0  0.2106788903474808  0.8333228826522826  0.924502968788147  1.0000
  O   O7        1.0  0.8927847146987915  0.19662500917911527  0.2641269862651825  1.0000
