data_image0
_chemical_formula_structural       CaMgOSi
_chemical_formula_sum              "Ca1 Mg1 O1 Si1"
_cell_length_a       3.230744079242023
_cell_length_b       3.230497968030111
_cell_length_c       7.330401420593262
_cell_angle_alpha    77.32712582506001
_cell_angle_beta     77.34193390912347
_cell_angle_gamma    60.02429094604014

_space_group_name_H-M_alt    "P 1"
_space_group_IT_number       1

loop_
  _space_group_symop_operation_xyz
  'x, y, z'

loop_
  _atom_site_type_symbol
  _atom_site_label
  _atom_site_symmetry_multiplicity
  _atom_site_fract_x
  _atom_site_fract_y
  _atom_site_fract_z
  _atom_site_occupancy
  Ca  Ca1       1.0  0.3397894501686097  0.9922606945037842  0.9000451564788818  1.0000
  Mg  Mg1       1.0  0.8849948644638062  0.537510097026825  0.2636421024799347  1.0000
  O   O1        1.0  0.607041597366333  0.2592252492904663  0.09874489903450012  1.0000
  Si  Si1       1.0  0.11689331382513046  0.7692450284957886  0.5684628486633301  1.0000
