data_image0
_chemical_formula_structural       MgSiCaO
_chemical_formula_sum              "Mg1 Si1 Ca1 O1"
_cell_length_a       3.4339321940375207
_cell_length_b       3.4367829077490883
_cell_length_c       7.3521647453308105
_cell_angle_alpha    90.16295033721597
_cell_angle_beta     89.9080749860538
_cell_angle_gamma    119.97763100134243

_space_group_name_H-M_alt    "P 1"
_space_group_IT_number       1

loop_
  _space_group_symop_operation_xyz
  'x, y, z'

loop_
  _atom_site_type_symbol
  _atom_site_label
  _atom_site_symmetry_multiplicity
  _atom_site_fract_x
  _atom_site_fract_y
  _atom_site_fract_z
  _atom_site_occupancy
  Mg  Mg1       1.0  0.24362702667713163  0.06611575931310654  0.5210505127906799  1.0000
  Si  Si1       1.0  0.5771529078483582  0.7330017685890199  0.7886361479759216  1.0000
  Ca  Ca1       1.0  0.9101464748382568  0.39981138706207275  0.12677118182182312  1.0000
  O   O1        1.0  0.24393279850482938  0.0664990022778511  0.2646530270576477  1.0000
