data_image0
_chemical_formula_structural       SiCaOSiOCaOCaMgO3
_chemical_formula_sum              "Si2 Ca3 O6 Mg1"
_cell_length_a       5.417953043335938
_cell_length_b       5.422793747564322
_cell_length_c       6.077105522155762
_cell_angle_alpha    90.07503895494993
_cell_angle_beta     90.00592427864984
_cell_angle_gamma    120.05438460616823

_space_group_name_H-M_alt    "P 1"
_space_group_IT_number       1

loop_
  _space_group_symop_operation_xyz
  'x, y, z'

loop_
  _atom_site_type_symbol
  _atom_site_label
  _atom_site_symmetry_multiplicity
  _atom_site_fract_x
  _atom_site_fract_y
  _atom_site_fract_z
  _atom_site_occupancy
  Si  Si1       1.0  0.6778685450553894  0.22761186957359317  0.8056022524833679  1.0000
  Ca  Ca1       1.0  0.012117579579353333  0.894800066947937  0.6124418377876282  1.0000
  O   O1        1.0  0.5199189782142639  0.386305719614029  0.6703059673309326  1.0000
  Si  Si2       1.0  0.012773056514561175  0.8942399024963379  0.12204758077859879  1.0000
  O   O2        1.0  0.17019586265087128  0.21125052869319916  0.2576809525489807  1.0000
  Ca  Ca2       1.0  0.6781395077705383  0.2272773385047913  0.31486183404922485  1.0000
  O   O3        1.0  0.6953156590461731  0.736012876033783  0.2579546570777893  1.0000
  Ca  Ca3       1.0  0.34524714946746826  0.561418354511261  0.9640551805496216  1.0000
  Mg  Mg1       1.0  0.3449217975139618  0.561174213886261  0.4642312526702881  1.0000
  O   O4        1.0  0.9950168728828429  0.3859640657901764  0.6698822975158691  1.0000
  O   O5        1.0  0.5198529958724976  0.9106860756874086  0.6700953841209412  1.0000
  O   O6        1.0  0.1706081032752991  0.7360451817512513  0.2573680579662323  1.0000
