data_image0
_chemical_formula_structural       Si3O6
_chemical_formula_sum              "Si3 O6"
_cell_length_a       4.984324
_cell_length_b       4.984323822731123
_cell_length_c       5.476616
_cell_angle_alpha    90.0
_cell_angle_beta     90.0
_cell_angle_gamma    120.00000117649004

_space_group_name_H-M_alt    "P 1"
_space_group_IT_number       1

loop_
  _space_group_symop_operation_xyz
  'x, y, z'

loop_
  _atom_site_type_symbol
  _atom_site_label
  _atom_site_symmetry_multiplicity
  _atom_site_fract_x
  _atom_site_fract_y
  _atom_site_fract_z
  _atom_site_occupancy
  Si  Si1       1.0  0.5259089797  0.5259093576  6.989000000000001e-07  1.0000
  Si  Si2       1.0  0.00021142709999997548  0.4746675964  0.6665256404  1.0000
  Si  Si3       1.0  0.4746676821  0.00021141029999999998  0.333473896  1.0000
  O   O1        1.0  0.2590263728  0.4135608301  0.7920517739  1.0000
  O   O2        1.0  0.5868147103  0.8459954196  0.1251858793  1.0000
  O   O3        1.0  0.1537042609  0.7401119769  0.4572856478  1.0000
  O   O4        1.0  0.4135600972  0.2590268072  0.20794929090000003  1.0000
  O   O5        1.0  0.7401132402000001  0.1537049997  0.5427133427  1.0000
  O   O6        1.0  0.8459932295999999  0.5868116022  0.8748138299  1.0000
