data_image0
_chemical_formula_structural       CaSiCaMgO5
_chemical_formula_sum              "Ca2 Si1 Mg1 O5"
_cell_length_a       5.079823422503508
_cell_length_b       5.086754624517123
_cell_length_c       6.772793292999268
_cell_angle_alpha    68.38154496506309
_cell_angle_beta     67.46859304174451
_cell_angle_gamma    61.573443190956674

_space_group_name_H-M_alt    "P 1"
_space_group_IT_number       1

loop_
  _space_group_symop_operation_xyz
  'x, y, z'

loop_
  _atom_site_type_symbol
  _atom_site_label
  _atom_site_symmetry_multiplicity
  _atom_site_fract_x
  _atom_site_fract_y
  _atom_site_fract_z
  _atom_site_occupancy
  Ca  Ca1       1.0  0.5790397524833679  0.6593905091285706  0.5144956111907958  1.0000
  Si  Si1       1.0  0.4189973473548889  0.43540576100349426  0.12278757989406586  1.0000
  Ca  Ca2       1.0  0.8288825750350952  0.8716160655021669  0.9256339073181152  1.0000
  Mg  Mg1       1.0  0.03378542140126229  0.05002453923225403  0.2984183430671692  1.0000
  O   O1        1.0  0.5692861080169678  0.4046862721443176  0.8675116300582886  1.0000
  O   O2        1.0  0.06791523844003677  0.851995587348938  0.5888733267784119  1.0000
  O   O3        1.0  0.4078409671783447  0.7497135400772095  0.14707380533218384  1.0000
  O   O4        1.0  0.6376736164093018  0.12170588225126266  0.26457279920578003  1.0000
  O   O5        1.0  0.05616914853453634  0.45986646413803106  0.21086190640926356  1.0000
