data_image0
_chemical_formula_structural       CaMg2Ca2OSi2OCaO8
_chemical_formula_sum              "Ca4 Mg2 O10 Si2"
_cell_length_a       5.276036367703397
_cell_length_b       5.437664810557331
_cell_length_c       8.43405818939209
_cell_angle_alpha    108.61061368248146
_cell_angle_beta     108.16022537129453
_cell_angle_gamma    90.13018637092786

_space_group_name_H-M_alt    "P 1"
_space_group_IT_number       1

loop_
  _space_group_symop_operation_xyz
  'x, y, z'

loop_
  _atom_site_type_symbol
  _atom_site_label
  _atom_site_symmetry_multiplicity
  _atom_site_fract_x
  _atom_site_fract_y
  _atom_site_fract_z
  _atom_site_occupancy
  Ca  Ca1       1.0  0.18653571605682373  0.32855892181396484  0.5458965301513672  1.0000
  Mg  Mg1       1.0  0.00883517600595951  0.6229952573776245  0.2557803988456726  1.0000
  Mg  Mg2       1.0  0.8025913238525391  0.4523337483406067  0.7663153409957886  1.0000
  Ca  Ca2       1.0  0.6916981339454651  0.8702051639556885  0.5436722040176392  1.0000
  Ca  Ca3       1.0  0.893480658531189  0.028496202081441876  0.9793851971626282  1.0000
  O   O1        1.0  0.05720917880535126  0.712091863155365  0.7324331402778625  1.0000
  Si  Si1       1.0  0.5150707364082336  0.2724466025829315  0.27558887004852295  1.0000
  Si  Si2       1.0  0.28180307149887085  0.937161386013031  0.7198570966720581  1.0000
  O   O2        1.0  0.5328785181045532  0.0306243896484375  0.1093398779630661  1.0000
  Ca  Ca4       1.0  0.3961082100868225  0.58692866563797  0.980438768863678  1.0000
  O   O3        1.0  0.1797219067811966  0.8728689551353453  0.49270978569984436  1.0000
  O   O4        1.0  0.5198991298675537  0.7125447988510132  0.7393987774848938  1.0000
  O   O5        1.0  0.9698176383972168  0.6393421292304993  0.029958125203847885  1.0000
  O   O6        1.0  0.1960977017879486  0.3070341646671295  0.2642526924610138  1.0000
  O   O7        1.0  0.6434684991836548  0.5420366525650024  0.2655624747276306  1.0000
  O   O8        1.0  0.07570528984069824  0.18136879801750183  0.7762842774391174  1.0000
  O   O9        1.0  0.6766225099563599  0.2542785406112671  0.47116783261299133  1.0000
  O   O10       1.0  0.5413603782653809  0.18898393213748932  0.7799450159072876  1.0000
