data_image0
_chemical_formula_structural       SiCaSiOMgCaSiOSiO2CaO8
_chemical_formula_sum              "Si4 Ca3 O12 Mg1"
_cell_length_a       5.578835175961848
_cell_length_b       5.671704349643744
_cell_length_c       10.096367835998535
_cell_angle_alpha    81.02361797535448
_cell_angle_beta     86.03182015014922
_cell_angle_gamma    63.96975470352979

_space_group_name_H-M_alt    "P 1"
_space_group_IT_number       1

loop_
  _space_group_symop_operation_xyz
  'x, y, z'

loop_
  _atom_site_type_symbol
  _atom_site_label
  _atom_site_symmetry_multiplicity
  _atom_site_fract_x
  _atom_site_fract_y
  _atom_site_fract_z
  _atom_site_occupancy
  Si  Si1       1.0  0.20343099534511574  0.8093528747558593  0.5920913219451904  1.0000
  Ca  Ca1       1.0  0.7076747417449951  0.7837425470352173  0.7311164736747742  1.0000
  Si  Si2       1.0  0.981045663356781  0.9002593159675598  0.0696132704615593  1.0000
  O   O1        1.0  0.5148308277130127  0.7031959891319275  0.5611825585365295  1.0000
  Mg  Mg1       1.0  0.494671106338501  0.37646242976188654  0.22002872824668884  1.0000
  Ca  Ca2       1.0  0.3333532810211182  0.38528296351432795  0.8880619406700134  1.0000
  Si  Si3       1.0  0.5346291065216066  0.7773954868316649  0.027862677350640307  1.0000
  O   O2        1.0  0.7086698412895203  0.9540470838546752  0.9717028141021729  1.0000
  Si  Si4       1.0  0.2670521140098572  0.29072096943855286  0.5350632667541504  1.0000
  O   O3        1.0  0.5797314047813416  0.6775838732719421  0.19054213166236877  1.0000
  O   O4        1.0  0.446922242641449  0.23057806491851804  0.40121448040008545  1.0000
  Ca  Ca3       1.0  0.7137627005577087  0.7962352037429808  0.36751994490623474  1.0000
  O   O5        1.0  0.4092054069042206  0.2067607045173645  0.681877613067627  1.0000
  O   O6        1.0  0.06421255320310591  0.13866491615772247  0.5340522527694702  1.0000
  O   O7        1.0  0.8329668641090393  0.04891344532370567  0.1963662505149841  1.0000
  O   O8        1.0  0.6290999054908754  0.5570679306983948  0.9279597401618958  1.0000
  O   O9        1.0  0.11248654127120968  0.763066828250885  0.7464479207992554  1.0000
  O   O10       1.0  0.16072969138622278  0.5783292651176453  0.0979384109377861  1.0000
  O   O11       1.0  0.08107279986143112  0.6296272277832031  0.5135349631309509  1.0000
  O   O12       1.0  0.20977608859539032  0.005929557606577873  0.9983484148979187  1.0000
