data_image0
_chemical_formula_structural       MgCaSiO
_chemical_formula_sum              "Mg1 Ca1 Si1 O1"
_cell_length_a       3.438881285164883
_cell_length_b       3.43278302814836
_cell_length_c       7.349540710449219
_cell_angle_alpha    89.90793837823077
_cell_angle_beta     90.09667016774635
_cell_angle_gamma    120.0112618650054

_space_group_name_H-M_alt    "P 1"
_space_group_IT_number       1

loop_
  _space_group_symop_operation_xyz
  'x, y, z'

loop_
  _atom_site_type_symbol
  _atom_site_label
  _atom_site_symmetry_multiplicity
  _atom_site_fract_x
  _atom_site_fract_y
  _atom_site_fract_z
  _atom_site_occupancy
  Mg  Mg1       1.0  0.5941743850708008  0.6691528558731079  0.3011470139026642  1.0000
  Ca  Ca1       1.0  0.2604788839817047  0.00238618440926075  0.6953343152999878  1.0000
  Si  Si1       1.0  0.9269754290580751  0.3352375626564026  0.0349292978644371  1.0000
  O   O1        1.0  0.594186007976532  0.6692793369293213  0.5573106408119202  1.0000
