data_image0
_chemical_formula_structural       SiMg2CaO2CaO3SiO3
_chemical_formula_sum              "Si2 Mg2 Ca2 O8"
_cell_length_a       5.150189827694457
_cell_length_b       5.1503425279711035
_cell_length_c       6.80911922454834
_cell_angle_alpha    89.97375408772842
_cell_angle_beta     90.06475269535443
_cell_angle_gamma    115.59063876687887

_space_group_name_H-M_alt    "P 1"
_space_group_IT_number       1

loop_
  _space_group_symop_operation_xyz
  'x, y, z'

loop_
  _atom_site_type_symbol
  _atom_site_label
  _atom_site_symmetry_multiplicity
  _atom_site_fract_x
  _atom_site_fract_y
  _atom_site_fract_z
  _atom_site_occupancy
  Si  Si1       1.0  0.598501443862915  0.07433608919382095  0.4102368056774139  1.0000
  Mg  Mg1       1.0  0.9392369985580444  0.7338310480117798  0.15971171855926514  1.0000
  Mg  Mg2       1.0  0.939470112323761  0.7341359853744506  0.660085618495941  1.0000
  Ca  Ca1       1.0  0.6259876489639282  0.04727184772491455  0.9103420376777648  1.0000
  O   O1        1.0  0.2419396936893462  0.9448518157005309  0.4097463488578796  1.0000
  O   O2        1.0  0.7286342978477478  0.43119853734970087  0.40967959165573115  1.0000
  Ca  Ca2       1.0  0.2531863749027252  0.42053458094596863  0.40968301892280573  1.0000
  O   O3        1.0  0.7127825021743774  0.9602122902870178  0.2200146913528442  1.0000
  O   O4        1.0  0.16651180386543274  0.5067222714424133  0.10035718232393263  1.0000
  O   O5        1.0  0.7121811509132385  0.959997832775116  0.6005525588989258  1.0000
  Si  Si2       1.0  0.2801009714603424  0.39351677894592285  0.9098768234252929  1.0000
  O   O6        1.0  0.16652800142765045  0.5069252848625183  0.7195146083831786  1.0000
  O   O7        1.0  0.6368055939674377  0.5226911306381226  0.909932255744934  1.0000
  O   O8        1.0  0.15032775700092316  0.036521133035421365  0.9100095629692077  1.0000
