data_image0
_chemical_formula_structural       CaSiCaSiMg2O2MgO7
_chemical_formula_sum              "Ca2 Si2 Mg3 O9"
_cell_length_a       5.427004268895271
_cell_length_b       5.725290425960659
_cell_length_c       7.9925103187561035
_cell_angle_alpha    109.89561839468399
_cell_angle_beta     100.98899751080242
_cell_angle_gamma    84.12651819389117

_space_group_name_H-M_alt    "P 1"
_space_group_IT_number       1

loop_
  _space_group_symop_operation_xyz
  'x, y, z'

loop_
  _atom_site_type_symbol
  _atom_site_label
  _atom_site_symmetry_multiplicity
  _atom_site_fract_x
  _atom_site_fract_y
  _atom_site_fract_z
  _atom_site_occupancy
  Ca  Ca1       1.0  0.8341519236564636  0.47622209787368774  0.37982985377311707  1.0000
  Si  Si1       1.0  0.34356361627578735  0.07332190871238708  0.3635495603084564  1.0000
  Ca  Ca2       1.0  0.7181461453437805  0.8526470065116882  0.1068008318543434  1.0000
  Si  Si2       1.0  0.2431391030550003  0.407565712928772  0.7318457961082458  1.0000
  Mg  Mg1       1.0  0.2931714653968811  0.4793739318847657  0.1437104344367981  1.0000
  Mg  Mg2       1.0  0.7718682289123535  0.26517340540885925  0.8942495584487914  1.0000
  O   O1        1.0  0.046168357133865356  0.2250502407550812  0.7513285875320435  1.0000
  O   O2        1.0  0.9351927042007446  0.497352421283722  0.1277807056903839  1.0000
  Mg  Mg3       1.0  0.3135184049606323  0.9293166399002075  0.721234142780304  1.0000
  O   O3        1.0  0.4207189083099365  0.19040292501449585  0.5922769904136658  1.0000
  O   O4        1.0  0.4735836684703827  0.7868955731391907  0.3144386708736419  1.0000
  O   O5        1.0  0.437456339597702  0.5055041909217834  0.9252325296401976  1.0000
  O   O6        1.0  0.13369007408618927  0.6175227761268616  0.64304518699646  1.0000
  O   O7        1.0  0.6232003569602966  0.9705356359481812  0.8727169632911681  1.0000
  O   O8        1.0  0.4765722453594208  0.23942451179027557  0.27476024627685547  1.0000
  O   O9        1.0  0.038556117564439774  0.08409005403518677  0.3117043673992157  1.0000
