data_image0
_chemical_formula_structural       SiMgOCaOMgOSiO4
_chemical_formula_sum              "Si2 Mg2 O7 Ca1"
_cell_length_a       5.407763689246822
_cell_length_b       5.407818650287741
_cell_length_c       8.904472351074219
_cell_angle_alpha    72.44627014323146
_cell_angle_beta     72.36829215919214
_cell_angle_gamma    60.18700065405502

_space_group_name_H-M_alt    "P 1"
_space_group_IT_number       1

loop_
  _space_group_symop_operation_xyz
  'x, y, z'

loop_
  _atom_site_type_symbol
  _atom_site_label
  _atom_site_symmetry_multiplicity
  _atom_site_fract_x
  _atom_site_fract_y
  _atom_site_fract_z
  _atom_site_occupancy
  Si  Si1       1.0  0.22542010247707367  0.8875810503959656  0.3290863037109375  1.0000
  Mg  Mg1       1.0  0.080871470272541  0.741424024105072  0.7628024220466613  1.0000
  O   O1        1.0  0.3341333866119385  0.5617026686668396  0.3346448838710785  1.0000
  Ca  Ca1       1.0  0.4835154116153717  0.14375901222229004  0.5567538738250732  1.0000
  O   O2        1.0  0.6776750683784486  0.33817756175994873  0.9743056297302245  1.0000
  Mg  Mg2       1.0  0.6019662618637085  0.264028936624527  0.199689045548439  1.0000
  O   O3        1.0  0.04671216756105423  0.4388589859008789  0.711510419845581  1.0000
  Si  Si2       1.0  0.7407325506210326  0.4009062349796295  0.7837560772895813  1.0000
  O   O4        1.0  0.46960613131523127  0.7071013450622559  0.7114318609237671  1.0000
  O   O5        1.0  0.899945855140686  0.10056518018245697  0.33426356315612793  1.0000
  O   O6        1.0  0.7790241241455078  0.12876543402671817  0.7123546004295349  1.0000
  O   O7        1.0  0.43966248631477356  0.9940988421440125  0.33417707681655884  1.0000
