data_image0
_chemical_formula_structural       Ca2SiMgO6
_chemical_formula_sum              "Ca2 Si1 Mg1 O6"
_cell_length_a       5.34526062654311
_cell_length_b       5.348065255610884
_cell_length_c       5.356084823608398
_cell_angle_alpha    60.94256864229446
_cell_angle_beta     60.87647917859383
_cell_angle_gamma    60.915651512922054

_space_group_name_H-M_alt    "P 1"
_space_group_IT_number       1

loop_
  _space_group_symop_operation_xyz
  'x, y, z'

loop_
  _atom_site_type_symbol
  _atom_site_label
  _atom_site_symmetry_multiplicity
  _atom_site_fract_x
  _atom_site_fract_y
  _atom_site_fract_z
  _atom_site_occupancy
  Ca  Ca1       1.0  0.8979787826538086  0.6133936643600465  0.5152678489685059  1.0000
  Ca  Ca2       1.0  0.3989343345165253  0.1183253675699234  0.018168726935982704  1.0000
  Si  Si1       1.0  0.6484933495521545  0.3661772608757019  0.26687952876091003  1.0000
  Mg  Mg1       1.0  0.1487281471490859  0.8659732937812806  0.7668792009353638  1.0000
  O   O1        1.0  0.470929890871048  0.08042117953300477  0.49516353011131287  1.0000
  O   O2        1.0  0.8272578716278076  0.6518514752388  0.03803713992238045  1.0000
  O   O3        1.0  0.3643004596233368  0.5955865383148193  0.08698319643735886  1.0000
  O   O4        1.0  0.9333537220954895  0.13595636188983917  0.446860432624817  1.0000
  O   O5        1.0  0.8795695304870605  0.18789201974868774  0.9812836647033691  1.0000
  O   O6        1.0  0.4172712862491607  0.5439510941505432  0.5529612898826599  1.0000
