data_image0
_chemical_formula_structural       MgOMgSiOSiO3CaO2
_chemical_formula_sum              "Mg2 O7 Si2 Ca1"
_cell_length_a       5.488072378813755
_cell_length_b       5.420601902142174
_cell_length_c       7.546767711639404
_cell_angle_alpha    86.75347701001277
_cell_angle_beta     70.14481996733575
_cell_angle_gamma    59.69225340431368

_space_group_name_H-M_alt    "P 1"
_space_group_IT_number       1

loop_
  _space_group_symop_operation_xyz
  'x, y, z'

loop_
  _atom_site_type_symbol
  _atom_site_label
  _atom_site_symmetry_multiplicity
  _atom_site_fract_x
  _atom_site_fract_y
  _atom_site_fract_z
  _atom_site_occupancy
  Mg  Mg1       1.0  0.616083264350891  0.5809808969497681  0.16514126956462863  1.0000
  O   O1        1.0  0.3979008495807649  0.9644502401351929  0.3441361784934997  1.0000
  Mg  Mg2       1.0  0.09603317826986305  0.8835299015045167  0.5289967656135559  1.0000
  Si  Si1       1.0  0.5350006818771362  0.1555102914571762  0.37715217471122736  1.0000
  O   O2        1.0  0.40948784351348877  0.7405620217323303  0.9750275015830993  1.0000
  Si  Si2       1.0  0.071897491812706  0.8199694752693176  0.9903922080993651  1.0000
  O   O3        1.0  0.8160946369171143  0.09966488182544708  0.1683661341667175  1.0000
  O   O4        1.0  0.023056138306856155  0.5440356135368347  0.032300852239131914  1.0000
  O   O5        1.0  0.664985716342926  0.06957373768091202  0.5515133738517761  1.0000
  Ca  Ca1       1.0  0.4704621434211731  0.12185886502265932  0.8681340813636779  1.0000
  O   O6        1.0  0.9908525347709655  0.9537608027458192  0.8041164278984069  1.0000
  O   O7        1.0  0.3254907131195068  0.5011511445045471  0.38838592171669  1.0000
