data_image0
_chemical_formula_structural       MgCaOSi
_chemical_formula_sum              "Mg1 Ca1 O1 Si1"
_cell_length_a       3.246194589273641
_cell_length_b       3.246325691705901
_cell_length_c       7.3754496574401855
_cell_angle_alpha    77.34778052835391
_cell_angle_beta     77.34855924447491
_cell_angle_gamma    60.02194914704141

_space_group_name_H-M_alt    "P 1"
_space_group_IT_number       1

loop_
  _space_group_symop_operation_xyz
  'x, y, z'

loop_
  _atom_site_type_symbol
  _atom_site_label
  _atom_site_symmetry_multiplicity
  _atom_site_fract_x
  _atom_site_fract_y
  _atom_site_fract_z
  _atom_site_occupancy
  Mg  Mg1       1.0  0.7005793452262878  0.050486620515584946  0.040262408554553986  1.0000
  Ca  Ca1       1.0  0.1552395671606064  0.5048995018005371  0.6768023371696472  1.0000
  O   O1        1.0  0.4224431216716765  0.7721517086029053  0.8752084970474243  1.0000
  Si  Si1       1.0  0.9324219822883606  0.2819332778453827  0.3451126515865326  1.0000
