data_image0
_chemical_formula_structural       CaMgSiO
_chemical_formula_sum              "Ca1 Mg1 Si1 O1"
_cell_length_a       3.1762452133714563
_cell_length_b       3.174470645565799
_cell_length_c       7.480075359344482
_cell_angle_alpha    78.1661129598172
_cell_angle_beta     78.22869063677821
_cell_angle_gamma    60.454675754348585

_space_group_name_H-M_alt    "P 1"
_space_group_IT_number       1

loop_
  _space_group_symop_operation_xyz
  'x, y, z'

loop_
  _atom_site_type_symbol
  _atom_site_label
  _atom_site_symmetry_multiplicity
  _atom_site_fract_x
  _atom_site_fract_y
  _atom_site_fract_z
  _atom_site_occupancy
  Ca  Ca1       1.0  0.6467172503471375  0.32987818121910095  0.2702171206474304  1.0000
  Mg  Mg1       1.0  0.8573944568634033  0.5404125452041626  0.6380181312561035  1.0000
  Si  Si1       1.0  0.08868277072906494  0.7724190950393677  0.9392828345298767  1.0000
  O   O1        1.0  0.24791292846202842  0.9302549958229066  0.4699581563472748  1.0000
