data_image0
_chemical_formula_structural       Mg2CaSiO7Si
_chemical_formula_sum              "Mg2 Ca1 Si2 O7"
_cell_length_a       5.256061887281361
_cell_length_b       5.257050339781908
_cell_length_c       9.087626457214355
_cell_angle_alpha    73.24650297765265
_cell_angle_beta     73.26936434286733
_cell_angle_gamma    59.95693481903148

_space_group_name_H-M_alt    "P 1"
_space_group_IT_number       1

loop_
  _space_group_symop_operation_xyz
  'x, y, z'

loop_
  _atom_site_type_symbol
  _atom_site_label
  _atom_site_symmetry_multiplicity
  _atom_site_fract_x
  _atom_site_fract_y
  _atom_site_fract_z
  _atom_site_occupancy
  Mg  Mg1       1.0  0.9316664934158325  0.01269578281790018  0.1946146637201309  1.0000
  Mg  Mg2       1.0  0.082828126847744  0.1608528345823288  0.749225914478302  1.0000
  Ca  Ca1       1.0  0.5061514973640442  0.587044358253479  0.4727955758571625  1.0000
  Si  Si1       1.0  0.7791107296943665  0.8584879040718079  0.6568858623504639  1.0000
  O   O1        1.0  0.07381441444158554  0.558929979801178  0.6486071944236755  1.0000
  O   O2        1.0  0.22029906511306763  0.6147945523262024  0.2966160178184509  1.0000
  O   O3        1.0  0.5337809324264526  0.02019738219678402  0.2965121269226074  1.0000
  O   O4        1.0  0.4792533218860625  0.8713449835777283  0.6482065916061401  1.0000
  O   O5        1.0  0.0075194016098976135  0.08732166886329651  0.9717289209365845  1.0000
  O   O6        1.0  0.7914756536483764  0.15408878028392792  0.648423433303833  1.0000
  O   O7        1.0  0.9386481046676636  0.3028167188167572  0.29606136679649353  1.0000
  Si  Si2       1.0  0.23452435433864594  0.31526437401771545  0.2879752516746521  1.0000
