data_image0
_chemical_formula_structural       OCa2SiMgO4SiO2
_chemical_formula_sum              "O7 Ca2 Si2 Mg1"
_cell_length_a       5.450003340411929
_cell_length_b       5.451000955743584
_cell_length_c       7.684854984283447
_cell_angle_alpha    69.11787990762623
_cell_angle_beta     69.16425134515502
_cell_angle_gamma    59.95820238351454

_space_group_name_H-M_alt    "P 1"
_space_group_IT_number       1

loop_
  _space_group_symop_operation_xyz
  'x, y, z'

loop_
  _atom_site_type_symbol
  _atom_site_label
  _atom_site_symmetry_multiplicity
  _atom_site_fract_x
  _atom_site_fract_y
  _atom_site_fract_z
  _atom_site_occupancy
  O   O1        1.0  0.38882800936698914  0.9209450483322144  0.3726300895214081  1.0000
  Ca  Ca1       1.0  0.40957897901535034  0.8079689741134644  0.04477345570921898  1.0000
  Ca  Ca2       1.0  0.9753015041351318  0.37423622608184814  0.348391741514206  1.0000
  Si  Si1       1.0  0.2704042196273803  0.6682054400444031  0.4637908339500427  1.0000
  Mg  Mg1       1.0  0.6926763653755188  0.09093209356069565  0.1959327608346939  1.0000
  O   O2        1.0  0.8623157143592834  0.3956541121006012  0.020108697935938835  1.0000
  O   O3        1.0  0.9899854063987732  0.7869802117347718  0.37152945995330805  1.0000
  O   O4        1.0  0.3951720595359802  0.26083868741989136  0.019145987927913666  1.0000
  O   O5        1.0  0.5233426690101624  0.3877990245819092  0.37222859263420105  1.0000
  Si  Si2       1.0  0.11496573686599731  0.5126541256904602  0.9297115206718445  1.0000
  O   O6        1.0  0.19228342175483704  0.5908648967742921  0.6961833238601685  1.0000
  O   O7        1.0  0.9965836405754089  0.792736291885376  0.01984086073935032  1.0000
