data_image0
_chemical_formula_structural       Ca3SiO2MgCaO2SiO4SiCaO3
_chemical_formula_sum              "Ca5 Si3 O11 Mg1"
_cell_length_a       5.3460329502604855
_cell_length_b       6.668786038439873
_cell_length_c       8.178702354431152
_cell_angle_alpha    101.0181221146467
_cell_angle_beta     91.29049833479526
_cell_angle_gamma    92.69256553522627

_space_group_name_H-M_alt    "P 1"
_space_group_IT_number       1

loop_
  _space_group_symop_operation_xyz
  'x, y, z'

loop_
  _atom_site_type_symbol
  _atom_site_label
  _atom_site_symmetry_multiplicity
  _atom_site_fract_x
  _atom_site_fract_y
  _atom_site_fract_z
  _atom_site_occupancy
  Ca  Ca1       1.0  0.5651690363883972  0.879751980304718  0.9111559391021729  1.0000
  Ca  Ca2       1.0  0.1276078224182129  0.2886897921562195  0.3283228874206543  1.0000
  Ca  Ca3       1.0  0.6103694438934326  0.9596778750419616  0.4046710133552551  1.0000
  Si  Si1       1.0  0.6459367275238037  0.4908145070075989  0.6249586343765259  1.0000
  O   O1        1.0  0.01850464940071106  0.830326497554779  0.010365666821599007  1.0000
  O   O2        1.0  0.21677114069461823  0.016594108194112778  0.7697386741638184  1.0000
  Mg  Mg1       1.0  0.2257940918207168  0.2999494075775146  0.7078428268432617  1.0000
  Ca  Ca4       1.0  0.6254976391792297  0.4387406110763549  0.06314393877983093  1.0000
  O   O3        1.0  0.6228104829788208  0.7253593802452086  0.5788841247558594  1.0000
  O   O4        1.0  0.31988009810447693  0.18311326205730435  0.08534032106399536  1.0000
  Si  Si2       1.0  0.12776824831962585  0.7725857496261597  0.19194342195987701  1.0000
  O   O5        1.0  0.06744708865880966  0.9576983451843262  0.3551466166973114  1.0000
  O   O6        1.0  0.4373026490211487  0.7572857737541198  0.1696556955575943  1.0000
  O   O7        1.0  0.9884814620018003  0.567759871482849  0.238802969455719  1.0000
  O   O8        1.0  0.4640001058578491  0.30122074484825134  0.5064687728881836  1.0000
  Si  Si3       1.0  0.09380065649747849  0.06264840066432951  0.9583244919776917  1.0000
  Ca  Ca5       1.0  0.0836065113544464  0.7535260319709777  0.5610206723213196  1.0000
  O   O9        1.0  0.5133055448532104  0.5085224509239197  0.8103870749473572  1.0000
  O   O10       1.0  0.8335133790969849  0.16958889365196228  0.9538383483886719  1.0000
  O   O11       1.0  0.9479415416717529  0.43281042575836176  0.6121686100959778  1.0000
