data_image0
_chemical_formula_structural       SiO2Mg2Si2OCaOMgCa2O7
_chemical_formula_sum              "Si3 O11 Mg3 Ca3"
_cell_length_a       5.267853432735656
_cell_length_b       5.516142009051715
_cell_length_c       10.936890602111816
_cell_angle_alpha    81.1330444823629
_cell_angle_beta     81.96222878852957
_cell_angle_gamma    68.9570959951977

_space_group_name_H-M_alt    "P 1"
_space_group_IT_number       1

loop_
  _space_group_symop_operation_xyz
  'x, y, z'

loop_
  _atom_site_type_symbol
  _atom_site_label
  _atom_site_symmetry_multiplicity
  _atom_site_fract_x
  _atom_site_fract_y
  _atom_site_fract_z
  _atom_site_occupancy
  Si  Si1       1.0  0.41702160239219666  0.6438741087913513  0.898322343826294  1.0000
  O   O1        1.0  0.9533513188362122  0.352182537317276  0.6870394349098206  1.0000
  O   O2        1.0  0.03660371154546738  0.2285282164812088  0.2133830487728119  1.0000
  Mg  Mg1       1.0  0.3023856282234192  0.1213475838303566  0.06110170856118202  1.0000
  Mg  Mg2       1.0  0.8714462518692017  0.6010432839393616  0.2783348858356476  1.0000
  Si  Si2       1.0  0.9654517769813538  0.620590329170227  0.7280112504959106  1.0000
  Si  Si3       1.0  0.2399122416973114  0.9532127976417543  0.2944146692752838  1.0000
  O   O3        1.0  0.16255807876586914  0.6953534483909607  0.29861941933631897  1.0000
  Ca  Ca1       1.0  0.5320767760276794  0.2914731502532959  0.3046647012233734  1.0000
  O   O4        1.0  0.539400041103363  0.9059405326843263  0.2081778347492218  1.0000
  Mg  Mg3       1.0  0.9424266815185547  0.18466258049011233  0.5391666293144226  1.0000
  Ca  Ca2       1.0  0.5133413076400757  0.7257628440856934  0.5680590867996216  1.0000
  Ca  Ca3       1.0  0.8432469367980957  0.08345394581556322  0.8600256443023682  1.0000
  O   O5        1.0  0.2581058740615844  0.6382598280906677  0.768255889415741  1.0000
  O   O6        1.0  0.48769140243530273  0.35155737400054937  0.9741309285163879  1.0000
  O   O7        1.0  0.7021650671958923  0.45206221938133245  0.43057161569595337  1.0000
  O   O8        1.0  0.8604946732521057  0.8721581697463989  0.6244287490844727  1.0000
  O   O9        1.0  0.21664798259735107  0.8980430364608766  0.9631155729293823  1.0000
  O   O10       1.0  0.7234314680099487  0.6915996074676514  0.8489682674407959  1.0000
  O   O11       1.0  0.2769745886325836  0.04292546585202217  0.42608851194381714  1.0000
