data_image0
_chemical_formula_structural       CaMgO5SiOSiO
_chemical_formula_sum              "Ca1 Mg1 O7 Si2"
_cell_length_a       5.553244629153868
_cell_length_b       4.861247831489707
_cell_length_c       5.566032409667969
_cell_angle_alpha    97.28686391957723
_cell_angle_beta     106.71156854045925
_cell_angle_gamma    96.98712907860758

_space_group_name_H-M_alt    "P 1"
_space_group_IT_number       1

loop_
  _space_group_symop_operation_xyz
  'x, y, z'

loop_
  _atom_site_type_symbol
  _atom_site_label
  _atom_site_symmetry_multiplicity
  _atom_site_fract_x
  _atom_site_fract_y
  _atom_site_fract_z
  _atom_site_occupancy
  Ca  Ca1       1.0  0.9361193776130676  0.8262685537338256  0.6324713230133057  1.0000
  Mg  Mg1       1.0  0.5532276034355164  0.8272499442100524  0.016220107674598694  1.0000
  O   O1        1.0  0.3544938564300537  0.03024415485560894  0.7314141392707825  1.0000
  O   O2        1.0  0.6152433753013611  0.5341418385505676  0.7103017568588257  1.0000
  O   O3        1.0  0.6002195477485657  0.05305664986371994  0.3796951174736023  1.0000
  O   O4        1.0  0.19021114706993103  0.5986547470092772  0.9683225750923157  1.0000
  O   O5        1.0  0.838765561580658  0.6256847381591797  0.21404120326042175  1.0000
  Si  Si1       1.0  0.017938779667019844  0.4239632785320282  0.11388689279556274  1.0000
  O   O6        1.0  0.8592876195907593  0.11957208812236785  0.9549967646598816  1.0000
  Si  Si2       1.0  0.45525699853897095  0.22870899736881253  0.5529831051826477  1.0000
  O   O7        1.0  0.19903263449668884  0.3275632858276367  0.37130945920944214  1.0000
