data_image0
_chemical_formula_structural       MgCaSiCaO6
_chemical_formula_sum              "Mg1 Ca2 Si1 O6"
_cell_length_a       5.394952121863514
_cell_length_b       5.395278620406762
_cell_length_c       5.397042751312256
_cell_angle_alpha    59.989434561996084
_cell_angle_beta     59.961055319013624
_cell_angle_gamma    59.9769159829047

_space_group_name_H-M_alt    "P 1"
_space_group_IT_number       1

loop_
  _space_group_symop_operation_xyz
  'x, y, z'

loop_
  _atom_site_type_symbol
  _atom_site_label
  _atom_site_symmetry_multiplicity
  _atom_site_fract_x
  _atom_site_fract_y
  _atom_site_fract_z
  _atom_site_occupancy
  Mg  Mg1       1.0  0.9801979064941406  0.15434466302394867  0.16363340616226196  1.0000
  Ca  Ca1       1.0  0.7305665016174316  0.9040387272834778  0.9136300683021548  1.0000
  Si  Si1       1.0  0.4805915653705597  0.6542595028877258  0.663742184638977  1.0000
  Ca  Ca2       1.0  0.23036515712738037  0.403895765542984  0.41369158029556274  1.0000
  O   O1        1.0  0.24667936563491827  0.887880265712738  0.8972563743591309  1.0000
  O   O2        1.0  0.7143120169639587  0.42021968960762024  0.8973344564437866  1.0000
  O   O3        1.0  0.7140169143676758  0.4200926423072815  0.43006470799446117  1.0000
  O   O4        1.0  0.7140363454818726  0.8879178166389465  0.42991334199905396  1.0000
  O   O5        1.0  0.24655254185199738  0.42031317949295044  0.8973727822303772  1.0000
  O   O6        1.0  0.24672354757785797  0.8877173662185669  0.42980682849884044  1.0000
