data_image0
_chemical_formula_structural       CaMgSiOCaSi3O10
_chemical_formula_sum              "Ca2 Mg1 Si4 O11"
_cell_length_a       4.889784601319432
_cell_length_b       5.590424541039389
_cell_length_c       10.320844650268555
_cell_angle_alpha    90.99308465062397
_cell_angle_beta     74.34777697069853
_cell_angle_gamma    107.42755794453495

_space_group_name_H-M_alt    "P 1"
_space_group_IT_number       1

loop_
  _space_group_symop_operation_xyz
  'x, y, z'

loop_
  _atom_site_type_symbol
  _atom_site_label
  _atom_site_symmetry_multiplicity
  _atom_site_fract_x
  _atom_site_fract_y
  _atom_site_fract_z
  _atom_site_occupancy
  Ca  Ca1       1.0  0.3872183561325073  0.1945696324110031  0.5998225808143616  1.0000
  Mg  Mg1       1.0  0.16537466645240784  0.6026816964149475  0.40349653363227833  1.0000
  Si  Si1       1.0  0.9708505868911743  0.5581945776939392  0.7265056371688843  1.0000
  O   O1        1.0  0.1056874543428421  0.4500161409378052  0.5870809555053711  1.0000
  Ca  Ca2       1.0  0.8662612438201904  0.9674944281578064  0.9682400226593018  1.0000
  Si  Si2       1.0  0.34798556566238403  0.4994472265243531  0.8962237238883972  1.0000
  Si  Si3       1.0  0.6955595016479492  0.14019249379634857  0.3151975870132446  1.0000
  Si  Si4       1.0  0.3283001482486725  0.2708975374698639  0.16800995171070096  1.0000
  O   O2        1.0  0.2966218590736389  0.27349790930747986  0.010817157104611397  1.0000
  O   O3        1.0  0.008448839187622076  0.06292126327753068  0.25103655457496643  1.0000
  O   O4        1.0  0.3803541660308838  0.538041114807129  0.22523365914821625  1.0000
  O   O5        1.0  0.6012117266654968  0.44852229952812195  0.7606422305107116  1.0000
  O   O6        1.0  0.6055272817611694  0.15784597396850586  0.16843575239181519  1.0000
  O   O7        1.0  0.4246463179588318  0.9365715384483339  0.41977235674858093  1.0000
  O   O8        1.0  0.06998354196548462  0.8552649021148682  0.7475618124008179  1.0000
  O   O9        1.0  0.42073872685432434  0.7739720344543457  0.9432201981544495  1.0000
  O   O10       1.0  0.7581836581230164  0.3942318558692932  0.39182108640670776  1.0000
  O   O11       1.0  0.043462108820676824  0.40135607123374945  0.8475576043128967  1.0000
