data_image0
_chemical_formula_structural       SiMgCaMg
_chemical_formula_sum              "Si1 Mg2 Ca1"
_cell_length_a       4.885538563495058
_cell_length_b       5.107255392604452
_cell_length_c       5.114403247833252
_cell_angle_alpha    119.95331361717027
_cell_angle_beta     90.09116503354043
_cell_angle_gamma    90.00729031390375

_space_group_name_H-M_alt    "P 1"
_space_group_IT_number       1

loop_
  _space_group_symop_operation_xyz
  'x, y, z'

loop_
  _atom_site_type_symbol
  _atom_site_label
  _atom_site_symmetry_multiplicity
  _atom_site_fract_x
  _atom_site_fract_y
  _atom_site_fract_z
  _atom_site_occupancy
  Si  Si1       1.0  0.6359209418296814  0.3965956866741181  0.6381832361221313  1.0000
  Mg  Mg1       1.0  0.1358952522277832  0.7310658693313599  0.3071869015693665  1.0000
  Ca  Ca1       1.0  0.6347025036811829  0.06350571662187576  0.9728777408599854  1.0000
  Mg  Mg2       1.0  0.13488565385341644  0.39789140224456787  0.6412407159805298  1.0000
