data_image0
_chemical_formula_structural       OMgSiCaOMgO4
_chemical_formula_sum              "O6 Mg2 Si1 Ca1"
_cell_length_a       5.218780130765049
_cell_length_b       5.214872208454375
_cell_length_c       5.6252217292785645
_cell_angle_alpha    62.410497837300746
_cell_angle_beta     62.44773721210092
_cell_angle_gamma    60.004240217381806

_space_group_name_H-M_alt    "P 1"
_space_group_IT_number       1

loop_
  _space_group_symop_operation_xyz
  'x, y, z'

loop_
  _atom_site_type_symbol
  _atom_site_label
  _atom_site_symmetry_multiplicity
  _atom_site_fract_x
  _atom_site_fract_y
  _atom_site_fract_z
  _atom_site_occupancy
  O   O1        1.0  0.21812863647937775  0.7177183628082275  0.8326648473739624  1.0000
  Mg  Mg1       1.0  0.854081630706787  0.0433676615357399  0.01562892273068428  1.0000
  Si  Si1       1.0  0.1630246490240097  0.3510598838329315  0.09068814665079117  1.0000
  Ca  Ca1       1.0  0.6447012424468994  0.8354918360710144  0.6411401629447937  1.0000
  O   O2        1.0  0.5289180278778076  0.18626227974891663  0.8331398963928223  1.0000
  Mg  Mg2       1.0  0.3705170750617981  0.5606434345245361  0.46315458416938776  1.0000
  O   O3        1.0  0.8068463206291199  0.593930721282959  0.2787399590015411  1.0000
  O   O4        1.0  0.9964576363563538  0.409816175699234  0.8327667713165283  1.0000
  O   O5        1.0  0.40319609642028803  0.2760280668735504  0.27961215376853943  1.0000
  O   O6        1.0  0.08777811378240581  0.9969812035560608  0.2791118025779724  1.0000
