data_image0
_chemical_formula_structural       Ca3SiO2SiCaO6
_chemical_formula_sum              "Ca4 Si2 O8"
_cell_length_a       5.449904442030725
_cell_length_b       5.454178349523752
_cell_length_c       7.021306037902832
_cell_angle_alpha    90.00442163712329
_cell_angle_beta     90.00048744789036
_cell_angle_gamma    115.58300030407618

_space_group_name_H-M_alt    "P 1"
_space_group_IT_number       1

loop_
  _space_group_symop_operation_xyz
  'x, y, z'

loop_
  _atom_site_type_symbol
  _atom_site_label
  _atom_site_symmetry_multiplicity
  _atom_site_fract_x
  _atom_site_fract_y
  _atom_site_fract_z
  _atom_site_occupancy
  Ca  Ca1       1.0  0.7927736639976501  0.7188001275062561  0.21623995900154114  1.0000
  Ca  Ca2       1.0  0.4686523377895355  0.04300336539745331  0.9657515883445741  1.0000
  Ca  Ca3       1.0  0.11696446686983109  0.39441487193107605  0.46618944406509405  1.0000
  Si  Si1       1.0  0.14279641211032867  0.36879342794418335  0.9664034843444825  1.0000
  O   O1        1.0  0.039865296334028244  0.47235858440399164  0.7764368057250977  1.0000
  O   O2        1.0  0.10458300262689599  0.951893448829651  0.4660716950893402  1.0000
  Si  Si2       1.0  0.44268709421157837  0.06874710321426392  0.46576178073883057  1.0000
  Ca  Ca4       1.0  0.7927978038787842  0.7187045812606812  0.7162131071090698  1.0000
  O   O3        1.0  0.025492321699857712  0.030888264998793605  0.9659804105758668  1.0000
  O   O4        1.0  0.5455160140991211  0.9653493762016296  0.27604350447654724  1.0000
  O   O5        1.0  0.481350839138031  0.4860146641731262  0.9662184715270997  1.0000
  O   O6        1.0  0.5602221488952636  0.4067144393920898  0.4660662114620209  1.0000
  O   O7        1.0  0.5456607937812805  0.9646864533424377  0.6556676626205444  1.0000
  O   O8        1.0  0.039758313447237015  0.4722208082675934  0.15602093935012817  1.0000
