data_image0
_chemical_formula_structural       MgO2CaSiO2
_chemical_formula_sum              "Mg1 O4 Ca1 Si1"
_cell_length_a       5.186728185286937
_cell_length_b       5.188113168031113
_cell_length_c       5.295978546142578
_cell_angle_alpha    119.38892162464509
_cell_angle_beta     119.48560895170563
_cell_angle_gamma    89.87264598127638

_space_group_name_H-M_alt    "P 1"
_space_group_IT_number       1

loop_
  _space_group_symop_operation_xyz
  'x, y, z'

loop_
  _atom_site_type_symbol
  _atom_site_label
  _atom_site_symmetry_multiplicity
  _atom_site_fract_x
  _atom_site_fract_y
  _atom_site_fract_z
  _atom_site_occupancy
  Mg  Mg1       1.0  0.7028222680091858  0.9698269367218018  0.7235101461410522  1.0000
  O   O1        1.0  0.7318683862686157  0.12993817031383514  0.4641703367233277  1.0000
  O   O2        1.0  0.12209370732307434  0.9414978623390198  0.9837362170219421  1.0000
  Ca  Ca1       1.0  0.20316025614738464  0.470259577035904  0.723456621170044  1.0000
  Si  Si1       1.0  0.4529308080673218  0.21997983753681183  0.22361123561859134  1.0000
  O   O3        1.0  0.41448506712913513  0.551091194152832  0.4634827673435211  1.0000
  O   O4        1.0  0.5442650318145752  0.25897106528282166  0.9839750528335571  1.0000
