data_image0
_chemical_formula_structural       Ca2SiMgO2
_chemical_formula_sum              "Ca2 Si1 Mg1 O2"
_cell_length_a       4.2563514759640375
_cell_length_b       4.390114342567161
_cell_length_c       6.2408127784729
_cell_angle_alpha    89.93418680055959
_cell_angle_beta     109.72358751604673
_cell_angle_gamma    89.97668423921193

_space_group_name_H-M_alt    "P 1"
_space_group_IT_number       1

loop_
  _space_group_symop_operation_xyz
  'x, y, z'

loop_
  _atom_site_type_symbol
  _atom_site_label
  _atom_site_symmetry_multiplicity
  _atom_site_fract_x
  _atom_site_fract_y
  _atom_site_fract_z
  _atom_site_occupancy
  Ca  Ca1       1.0  0.07415840774774551  0.13691797852516174  0.33834442496299744  1.0000
  Ca  Ca2       1.0  0.3359423577785492  0.6354085803031921  0.8648557662963866  1.0000
  Si  Si1       1.0  0.5983348488807678  0.6361865997314454  0.38877767324447626  1.0000
  Mg  Mg1       1.0  0.758006751537323  0.1349431723356247  0.707895040512085  1.0000
  O   O1        1.0  0.2711866497993469  0.13442610204219818  0.7356794476509093  1.0000
  O   O2        1.0  0.7526693940162659  0.6355805397033691  0.6968148350715637  1.0000
