data_image0
_chemical_formula_structural       SiMgOMgCaO3
_chemical_formula_sum              "Si1 Mg2 O4 Ca1"
_cell_length_a       4.880637950445363
_cell_length_b       4.884839809479277
_cell_length_c       5.430792331695557
_cell_angle_alpha    116.64695219029224
_cell_angle_beta     116.63851361920567
_cell_angle_gamma    90.17814032752881

_space_group_name_H-M_alt    "P 1"
_space_group_IT_number       1

loop_
  _space_group_symop_operation_xyz
  'x, y, z'

loop_
  _atom_site_type_symbol
  _atom_site_label
  _atom_site_symmetry_multiplicity
  _atom_site_fract_x
  _atom_site_fract_y
  _atom_site_fract_z
  _atom_site_occupancy
  Si  Si1       1.0  0.013423363678157304  0.37378755211830134  0.9664299488067626  1.0000
  Mg  Mg1       1.0  0.7629038691520691  0.6234114170074462  0.4663678109645843  1.0000
  O   O1        1.0  0.09000729024410248  0.053907554596662514  0.7250894904136658  1.0000
  Mg  Mg2       1.0  0.26330605149269104  0.12283267825841904  0.4661643207073211  1.0000
  Ca  Ca1       1.0  0.5139127969741821  0.8733857274055481  0.9664825201034545  1.0000
  O   O2        1.0  0.6943311691284179  0.45110914111137385  0.7249842286109924  1.0000
  O   O3        1.0  0.9352483153343201  0.29548230767250055  0.20888708531856537  1.0000
  O   O4        1.0  0.3323274850845337  0.6937662363052368  0.20921747386455536  1.0000
