data_image0
_chemical_formula_structural       MgCa3SiCaO3SiO2SiO7
_chemical_formula_sum              "Mg1 Ca4 Si3 O12"
_cell_length_a       5.819761741776997
_cell_length_b       5.828919244459633
_cell_length_c       8.449772834777832
_cell_angle_alpha    95.53048883453816
_cell_angle_beta     88.65573929628378
_cell_angle_gamma    101.45623753001578

_space_group_name_H-M_alt    "P 1"
_space_group_IT_number       1

loop_
  _space_group_symop_operation_xyz
  'x, y, z'

loop_
  _atom_site_type_symbol
  _atom_site_label
  _atom_site_symmetry_multiplicity
  _atom_site_fract_x
  _atom_site_fract_y
  _atom_site_fract_z
  _atom_site_occupancy
  Mg  Mg1       1.0  0.07022716850042343  0.19952528178691864  0.8278230428695679  1.0000
  Ca  Ca1       1.0  0.42604464292526245  0.2905811369419098  0.5297268629074097  1.0000
  Ca  Ca2       1.0  0.8749910593032837  0.900172770023346  0.4337988495826721  1.0000
  Ca  Ca3       1.0  0.4545925557613373  0.7955467104911805  0.8104071021080017  1.0000
  Si  Si1       1.0  0.3815193772315979  0.8144870400428772  0.23042838275432587  1.0000
  Ca  Ca4       1.0  0.6427599191665649  0.3246271014213562  0.02292914502322674  1.0000
  O   O1        1.0  0.7755200862884521  0.6443122029304504  0.8907254934310913  1.0000
  O   O2        1.0  0.7243848443031311  0.5851458311080933  0.5779785513877869  1.0000
  O   O3        1.0  0.068120077252388  0.9108341336250305  0.6890705227851869  1.0000
  Si  Si2       1.0  0.9193946123123169  0.6442474722862244  0.7229634523391724  1.0000
  O   O4        1.0  0.14060452580451968  0.49202099442482  0.7193273901939392  1.0000
  O   O5        1.0  0.09688162058591843  0.6833227872848511  0.2685832679271698  1.0000
  Si  Si3       1.0  0.14309458434581757  0.4052200913429261  0.22379377484321594  1.0000
  O   O6        1.0  0.46716684103012085  0.20118069648742676  0.7863388657569885  1.0000
  O   O7        1.0  0.029743071645498276  0.29058629274368286  0.05761362984776497  1.0000
  O   O8        1.0  0.697789192199707  0.13282261788845062  0.7619289755821228  1.0000
  O   O9        1.0  0.43485063314437866  0.5322237014770508  0.20635922253131866  1.0000
  O   O10       1.0  0.5087217092514038  0.9584401845932007  0.3857438862323761  1.0000
  O   O11       1.0  0.4270189702510834  0.9423993825912477  0.069283664226532  1.0000
  O   O12       1.0  0.10206212848424911  0.24249832332134247  0.3677791655063629  1.0000
