data_image0
_chemical_formula_structural       MgCaOSi2CaMgO
_chemical_formula_sum              "Mg2 Ca2 O2 Si2"
_cell_length_a       3.590650694472676
_cell_length_b       3.5918701485811995
_cell_length_c       13.293838500976562
_cell_angle_alpha    82.33888021832475
_cell_angle_beta     82.32001456493298
_cell_angle_gamma    60.07795432787737

_space_group_name_H-M_alt    "P 1"
_space_group_IT_number       1

loop_
  _space_group_symop_operation_xyz
  'x, y, z'

loop_
  _atom_site_type_symbol
  _atom_site_label
  _atom_site_symmetry_multiplicity
  _atom_site_fract_x
  _atom_site_fract_y
  _atom_site_fract_z
  _atom_site_occupancy
  Mg  Mg1       1.0  0.9195444583892822  0.6627698540687561  0.6249759793281555  1.0000
  Ca  Ca1       1.0  0.5118910670280457  0.25756824016571045  0.8414301872253418  1.0000
  O   O1        1.0  0.35458394885063177  0.09729045629501343  0.31954559683799744  1.0000
  Si  Si1       1.0  0.7955419421195985  0.5408498644828796  0.9920372366905212  1.0000
  Si  Si2       1.0  0.10400594025850297  0.8501636385917664  0.06556816399097443  1.0000
  Ca  Ca2       1.0  0.7089372873306276  0.4540880024433136  0.2511211931705475  1.0000
  Mg  Mg2       1.0  0.30590325593948364  0.0489300675690174  0.46323007345199585  1.0000
  O   O2        1.0  0.6186322569847107  0.3611997067928314  0.5275406837463379  1.0000
