data_image0
_chemical_formula_structural       CaOSiO4MgO
_chemical_formula_sum              "Ca1 O6 Si1 Mg1"
_cell_length_a       4.892988814612958
_cell_length_b       5.141806784843751
_cell_length_c       5.128369331359863
_cell_angle_alpha    119.89880625856924
_cell_angle_beta     89.94188441379907
_cell_angle_gamma    90.13624429578988

_space_group_name_H-M_alt    "P 1"
_space_group_IT_number       1

loop_
  _space_group_symop_operation_xyz
  'x, y, z'

loop_
  _atom_site_type_symbol
  _atom_site_label
  _atom_site_symmetry_multiplicity
  _atom_site_fract_x
  _atom_site_fract_y
  _atom_site_fract_z
  _atom_site_occupancy
  Ca  Ca1       1.0  0.7029908895492554  0.32680702209472656  0.14869366586208338  1.0000
  O   O1        1.0  0.9986067414283752  0.28456744551658625  0.49393799901008606  1.0000
  Si  Si1       1.0  0.20281152427196503  0.9931345582008362  0.4819926321506499  1.0000
  O   O2        1.0  0.40751785039901733  0.28480130434036255  0.7605906128883361  1.0000
  O   O3        1.0  0.4073358178138733  0.9821164011955261  0.1903301924467086  1.0000
  O   O4        1.0  0.9980623126029968  0.7132601737976074  0.1906089931726455  1.0000
  O   O5        1.0  0.4069861173629761  0.7139507532119751  0.4942023754119872  1.0000
  Mg  Mg1       1.0  0.2025325745344162  0.66071617603302  0.8155546188354492  1.0000
  O   O6        1.0  0.9991194605827332  0.9807223677635193  0.7620726823806762  1.0000
