data_image0
_chemical_formula_structural       CaOSi2MgSiO6
_chemical_formula_sum              "Ca1 O7 Si3 Mg1"
_cell_length_a       5.096341696403429
_cell_length_b       5.101310794288628
_cell_length_c       8.6005277633667
_cell_angle_alpha    72.86168491231892
_cell_angle_beta     72.82880993188154
_cell_angle_gamma    60.03104544907042

_space_group_name_H-M_alt    "P 1"
_space_group_IT_number       1

loop_
  _space_group_symop_operation_xyz
  'x, y, z'

loop_
  _atom_site_type_symbol
  _atom_site_label
  _atom_site_symmetry_multiplicity
  _atom_site_fract_x
  _atom_site_fract_y
  _atom_site_fract_z
  _atom_site_occupancy
  Ca  Ca1       1.0  0.8210721015930176  0.046392273157835014  0.7544320225715637  1.0000
  O   O1        1.0  0.1506103277206421  0.9789451956748962  0.95497328042984  1.0000
  Si  Si1       1.0  0.3907594382762909  0.6183878183364868  0.039865732192993136  1.0000
  Si  Si2       1.0  0.5522393584251405  0.7778133153915405  0.5603994131088257  1.0000
  Mg  Mg1       1.0  0.24948006868362424  0.4749341011047364  0.46812573075294495  1.0000
  Si  Si3       1.0  0.06490123271942139  0.2927491068840027  0.020468730479478836  1.0000
  O   O2        1.0  0.5362383127212524  0.4783031344413758  0.5759418606758118  1.0000
  O   O3        1.0  0.25374338030815125  0.07684460282325745  0.5748459100723267  1.0000
  O   O4        1.0  0.8507071733474731  0.7625713348388672  0.5760030150413513  1.0000
  O   O5        1.0  0.3274872899055481  0.5545872449874878  0.23214244842529294  1.0000
  O   O6        1.0  0.7520701289176941  0.5835447311401368  0.9543118476867675  1.0000
  O   O7        1.0  0.3555416464805603  0.37819454073905945  0.9544106125831603  1.0000
