data_image0
_chemical_formula_structural       CaSiCa2MgCa4MgO2
_chemical_formula_sum              "Ca7 Si1 Mg2 O2"
_cell_length_a       4.790327794382844
_cell_length_b       4.786281503818701
_cell_length_c       13.63978385925293
_cell_angle_alpha    100.08066570877057
_cell_angle_beta     100.05981301162052
_cell_angle_gamma    90.00441474803252

_space_group_name_H-M_alt    "P 1"
_space_group_IT_number       1

loop_
  _space_group_symop_operation_xyz
  'x, y, z'

loop_
  _atom_site_type_symbol
  _atom_site_label
  _atom_site_symmetry_multiplicity
  _atom_site_fract_x
  _atom_site_fract_y
  _atom_site_fract_z
  _atom_site_occupancy
  Ca  Ca1       1.0  0.08221559971570969  0.25225821137428284  0.4405265748500824  1.0000
  Si  Si1       1.0  0.3978254795074463  0.5679193735122682  0.07237855345010757  1.0000
  Ca  Ca2       1.0  0.9841365218162538  0.6542735695838929  0.24506552517414093  1.0000
  Ca  Ca3       1.0  0.8977963328361512  0.0679519847035408  0.07258134335279463  1.0000
  Mg  Mg1       1.0  0.5842978358268738  0.754898726940155  0.44613927602767944  1.0000
  Ca  Ca4       1.0  0.3110704720020294  0.9817172884941102  0.8991986513137817  1.0000
  Ca  Ca5       1.0  0.8111756443977356  0.4816061854362488  0.8994227647781372  1.0000
  Ca  Ca6       1.0  0.4848232567310334  0.15424446761608124  0.2453974187374115  1.0000
  Ca  Ca7       1.0  0.7132537364959717  0.8837566971778871  0.7042403221130371  1.0000
  Mg  Mg2       1.0  0.2105933129787445  0.380669116973877  0.698128342628479  1.0000
  O   O1        1.0  0.9888066053390504  0.15886105597019196  0.25401994585990906  1.0000
  O   O2        1.0  0.8067075610160828  0.9773284196853639  0.8910313844680786  1.0000
