data_image0
_chemical_formula_structural       MgSiMg2O6
_chemical_formula_sum              "Mg3 Si1 O6"
_cell_length_a       5.080008278136324
_cell_length_b       5.081633864717236
_cell_length_c       5.40294075012207
_cell_angle_alpha    61.872805460973595
_cell_angle_beta     61.82412613106386
_cell_angle_gamma    59.89643294561171

_space_group_name_H-M_alt    "P 1"
_space_group_IT_number       1

loop_
  _space_group_symop_operation_xyz
  'x, y, z'

loop_
  _atom_site_type_symbol
  _atom_site_label
  _atom_site_symmetry_multiplicity
  _atom_site_fract_x
  _atom_site_fract_y
  _atom_site_fract_z
  _atom_site_occupancy
  Mg  Mg1       1.0  0.7838870882987976  0.887240469455719  0.9898311495780945  1.0000
  Si  Si1       1.0  0.9949472546577454  0.0978660136461258  0.3562562465667724  1.0000
  Mg  Mg2       1.0  0.2922643721103668  0.3942129611968994  0.46491965651512146  1.0000
  Mg  Mg3       1.0  0.5003402829170227  0.6030335426330566  0.8410384058952332  1.0000
  O   O1        1.0  0.1961666494607926  0.9906460046768187  0.6199508309364319  1.0000
  O   O2        1.0  0.3434269428253174  0.8462571501731873  0.15504126250743866  1.0000
  O   O3        1.0  0.8880935311317444  0.7401061058044434  0.6201270222663879  1.0000
  O   O4        1.0  0.6363555192947388  0.29908910393714905  0.6203104853630066  1.0000
  O   O5        1.0  0.09803443402051926  0.4466301500797272  0.15600404143333435  1.0000
  O   O6        1.0  0.7443180084228516  0.2023298442363739  0.15528260171413422  1.0000
