data_image0
_chemical_formula_structural       SiMg2O2SiOCaO4
_chemical_formula_sum              "Si2 Mg2 O7 Ca1"
_cell_length_a       5.288425184986599
_cell_length_b       5.292574153670873
_cell_length_c       8.500452041625977
_cell_angle_alpha    71.9823934690964
_cell_angle_beta     72.00290391149981
_cell_angle_gamma    60.011093100289344

_space_group_name_H-M_alt    "P 1"
_space_group_IT_number       1

loop_
  _space_group_symop_operation_xyz
  'x, y, z'

loop_
  _atom_site_type_symbol
  _atom_site_label
  _atom_site_symmetry_multiplicity
  _atom_site_fract_x
  _atom_site_fract_y
  _atom_site_fract_z
  _atom_site_occupancy
  Si  Si1       1.0  0.5260733366012573  0.959357976913452  0.2431400865316391  1.0000
  Mg  Mg1       1.0  0.8482984304428101  0.28128692507743835  0.27597129344940186  1.0000
  Mg  Mg2       1.0  0.6740002036094666  0.10783859342336653  0.8013087511062622  1.0000
  O   O1        1.0  0.5029875040054321  0.22364656627178192  0.31984496116638184  1.0000
  O   O2        1.0  0.5931134223937988  0.027621803805232048  0.038964353501796695  1.0000
  Si  Si2       1.0  0.37286534905433655  0.8049328327178955  0.7059299349784851  1.0000
  O   O3        1.0  0.79127436876297  0.6395792365074158  0.31984496116638184  1.0000
  Ca  Ca1       1.0  0.10506755113601685  0.538432776927948  0.5061625838279724  1.0000
  O   O4        1.0  0.07166702300310131  0.8203399777412415  0.6983164548873901  1.0000
  O   O5        1.0  0.38671106100082403  0.10004194825887679  0.6971858143806458  1.0000
  O   O6        1.0  0.6660378575325013  0.5053157806396484  0.6982962489128113  1.0000
  O   O7        1.0  0.2075132131576538  0.9359384179115295  0.31979241967201233  1.0000
