data_image0
_chemical_formula_structural       CaSiMgSiCaO3SiO3CaO3SiO3
_chemical_formula_sum              "Ca3 Si4 Mg1 O12"
_cell_length_a       5.318524285126926
_cell_length_b       6.456626325719332
_cell_length_c       8.424962997436523
_cell_angle_alpha    104.83547381483446
_cell_angle_beta     94.47633779193379
_cell_angle_gamma    102.70600581129548

_space_group_name_H-M_alt    "P 1"
_space_group_IT_number       1

loop_
  _space_group_symop_operation_xyz
  'x, y, z'

loop_
  _atom_site_type_symbol
  _atom_site_label
  _atom_site_symmetry_multiplicity
  _atom_site_fract_x
  _atom_site_fract_y
  _atom_site_fract_z
  _atom_site_occupancy
  Ca  Ca1       1.0  0.10193493217229847  0.7325772047042848  0.7377805113792419  1.0000
  Si  Si1       1.0  0.9913597106933594  0.6412301659584045  0.27283844351768494  1.0000
  Mg  Mg1       1.0  0.47506847977638245  0.48013910651206976  0.4023706912994385  1.0000
  Si  Si2       1.0  0.6367906332015991  0.6767841577529907  0.9923868775367737  1.0000
  Ca  Ca2       1.0  0.9740543365478516  0.20833736658096316  0.9497919082641602  1.0000
  O   O1        1.0  0.8325164318084717  0.5503695607185364  0.07484720647335055  1.0000
  O   O2        1.0  0.15160909295082092  0.9008206129074097  0.2937070429325104  1.0000
  O   O3        1.0  0.28302398324012756  0.4247981905937195  0.5836873054504395  1.0000
  Si  Si3       1.0  0.40063515305519104  0.30242031812667847  0.7140699028968811  1.0000
  O   O4        1.0  0.748114287853241  0.813831090927124  0.865277886390686  1.0000
  O   O5        1.0  0.7041564583778381  0.2836829125881195  0.7114312648773193  1.0000
  O   O6        1.0  0.5803440809249878  0.2132556140422821  0.31526365876197815  1.0000
  Ca  Ca3       1.0  0.8891242146492004  0.1082468181848526  0.4788326323032379  1.0000
  O   O7        1.0  0.17620976269245148  0.07873652875423431  0.6988283395767212  1.0000
  O   O8        1.0  0.16549287736415866  0.4665700495243073  0.2552889287471771  1.0000
  O   O9        1.0  0.2607661187648773  0.007987689226865768  0.009180675260722637  1.0000
  Si  Si4       1.0  0.3833301067352295  0.997545599937439  0.18752682209014893  1.0000
  O   O10       1.0  0.5602636933326721  0.8182711005210878  0.16514290869235995  1.0000
  O   O11       1.0  0.3683013617992401  0.47970846295356756  0.8974751234054565  1.0000
  O   O12       1.0  0.8310365676879883  0.6810610890388489  0.4321005940437317  1.0000
