data_image0
_chemical_formula_structural       MgCaSi2O2
_chemical_formula_sum              "Mg1 Ca1 Si2 O2"
_cell_length_a       3.664111310188179
_cell_length_b       3.663625027754196
_cell_length_c       8.731027603149414
_cell_angle_alpha    77.81031422335852
_cell_angle_beta     77.83738248649058
_cell_angle_gamma    59.966937409743046

_space_group_name_H-M_alt    "P 1"
_space_group_IT_number       1

loop_
  _space_group_symop_operation_xyz
  'x, y, z'

loop_
  _atom_site_type_symbol
  _atom_site_label
  _atom_site_symmetry_multiplicity
  _atom_site_fract_x
  _atom_site_fract_y
  _atom_site_fract_z
  _atom_site_occupancy
  Mg  Mg1       1.0  0.6481707096099852  0.6784892678260804  0.6877870559692383  1.0000
  Ca  Ca1       1.0  0.20489139854907992  0.23420132696628573  0.019082915037870407  1.0000
  Si  Si1       1.0  0.7735289931297301  0.8037098050117494  0.3104346692562103  1.0000
  Si  Si2       1.0  0.07004273682832718  0.10076569765806198  0.42134156823158264  1.0000
  O   O1        1.0  0.002472953405231234  0.03322225436568261  0.6246131658554077  1.0000
  O   O2        1.0  0.5722163319587708  0.6025548577308655  0.9153162240982056  1.0000
