data_image0
_chemical_formula_structural       CaMg2O2SiO4
_chemical_formula_sum              "Ca1 Mg2 O6 Si1"
_cell_length_a       5.1030116299401955
_cell_length_b       5.107135572848999
_cell_length_c       6.121728897094727
_cell_angle_alpha    65.45372739446674
_cell_angle_beta     65.25573625207531
_cell_angle_gamma    59.99215455385546

_space_group_name_H-M_alt    "P 1"
_space_group_IT_number       1

loop_
  _space_group_symop_operation_xyz
  'x, y, z'

loop_
  _atom_site_type_symbol
  _atom_site_label
  _atom_site_symmetry_multiplicity
  _atom_site_fract_x
  _atom_site_fract_y
  _atom_site_fract_z
  _atom_site_occupancy
  Ca  Ca1       1.0  0.870198667049408  0.8369688391685486  0.3063688278198242  1.0000
  Mg  Mg1       1.0  0.06077777221798897  0.02777978405356407  0.7357832193374634  1.0000
  Mg  Mg2       1.0  0.6803446412086487  0.6461864709854126  0.8759456276893616  1.0000
  O   O1        1.0  0.1212741956114769  0.6760550141334534  0.6187835335731506  1.0000
  O   O2        1.0  0.2722629308700561  0.5846224427223206  0.993876039981842  1.0000
  Si  Si1       1.0  0.370472252368927  0.33683016896247864  0.806531548500061  1.0000
  O   O3        1.0  0.6192778348922728  0.9980673193931581  0.9939788579940796  1.0000
  O   O4        1.0  0.7092940211296083  0.43392112851142883  0.6184569001197814  1.0000
  O   O5        1.0  0.03063754923641684  0.2393931597471237  0.9950304627418518  1.0000
  O   O6        1.0  0.46766340732574463  0.08879953622817993  0.6188374757766724  1.0000
