data_image0
_chemical_formula_structural       CaMgSiOSiO5Ca
_chemical_formula_sum              "Ca2 Mg1 Si2 O6"
_cell_length_a       5.449340354408646
_cell_length_b       5.44385504799697
_cell_length_c       6.119291305541992
_cell_angle_alpha    91.92688086013946
_cell_angle_beta     114.79579571047762
_cell_angle_gamma    119.38143677693733

_space_group_name_H-M_alt    "P 1"
_space_group_IT_number       1

loop_
  _space_group_symop_operation_xyz
  'x, y, z'

loop_
  _atom_site_type_symbol
  _atom_site_label
  _atom_site_symmetry_multiplicity
  _atom_site_fract_x
  _atom_site_fract_y
  _atom_site_fract_z
  _atom_site_occupancy
  Ca  Ca1       1.0  0.8912851810455322  0.2530059218406677  0.31866058707237244  1.0000
  Mg  Mg1       1.0  0.42523327469825745  0.03834541141986847  0.6380278468132019  1.0000
  Si  Si1       1.0  0.2601766288280487  0.5011317133903503  0.9356829524040221  1.0000
  O   O1        1.0  0.9047608375549316  0.3543965816497803  0.9222024679183959  1.0000
  Si  Si2       1.0  0.5907183289527893  0.5755306482315063  0.34055331349372864  1.0000
  O   O2        1.0  0.5860947966575623  0.7792911529541016  0.5403997898101807  1.0000
  O   O3        1.0  0.26371854543685913  0.2979859411716461  0.7359381914138793  1.0000
  O   O4        1.0  0.3927622139453888  0.8419657349586487  0.9217299222946166  1.0000
  O   O5        1.0  0.4572570025920868  0.2341579794883728  0.35469758510589594  1.0000
  O   O6        1.0  0.9466091394424438  0.7226749658584595  0.3550786972045898  1.0000
  Ca  Ca2       1.0  0.9584671854972839  0.8230806589126587  0.956925868988037  1.0000
