data_image0
_chemical_formula_structural       Mg2O2CaOSiO
_chemical_formula_sum              "Mg2 O4 Ca1 Si1"
_cell_length_a       4.7204919998836345
_cell_length_b       4.724757239765278
_cell_length_c       5.730271816253662
_cell_angle_alpha    114.43754386508785
_cell_angle_beta     114.34954452869809
_cell_angle_gamma    89.91806105255618

_space_group_name_H-M_alt    "P 1"
_space_group_IT_number       1

loop_
  _space_group_symop_operation_xyz
  'x, y, z'

loop_
  _atom_site_type_symbol
  _atom_site_label
  _atom_site_symmetry_multiplicity
  _atom_site_fract_x
  _atom_site_fract_y
  _atom_site_fract_z
  _atom_site_occupancy
  Mg  Mg1       1.0  0.3785986602306366  0.5510409474372864  0.29986143112182617  1.0000
  Mg  Mg2       1.0  0.6298644542694092  0.3009663224220276  0.7999162673950195  1.0000
  O   O1        1.0  0.7949343323707581  0.5122365355491638  0.5972784161567688  1.0000
  O   O2        1.0  0.2622527778148651  0.8885064125061035  0.5974518656730652  1.0000
  Ca  Ca1       1.0  0.8790842890739441  0.05164209008216858  0.29996463656425476  1.0000
  O   O3        1.0  0.04211881011724472  0.13669542968273163  0.001923028845340023  1.0000
  Si  Si1       1.0  0.12905195355415344  0.8017787933349609  0.8000933527946472  1.0000
  O   O4        1.0  0.41931858658790594  0.6683737039566041  0.0016726255416870891  1.0000
