data_image0
_chemical_formula_structural       CaMgSiO3
_chemical_formula_sum              "Ca1 Mg1 Si1 O3"
_cell_length_a       3.232291006937839
_cell_length_b       4.939174690492735
_cell_length_c       5.421646595001221
_cell_angle_alpha    115.31446600664586
_cell_angle_beta     107.17676640808877
_cell_angle_gamma    90.1465245219479

_space_group_name_H-M_alt    "P 1"
_space_group_IT_number       1

loop_
  _space_group_symop_operation_xyz
  'x, y, z'

loop_
  _atom_site_type_symbol
  _atom_site_label
  _atom_site_symmetry_multiplicity
  _atom_site_fract_x
  _atom_site_fract_y
  _atom_site_fract_z
  _atom_site_occupancy
  Ca  Ca1       1.0  0.4630733728408813  0.7919167280197144  0.07156052440404892  1.0000
  Mg  Mg1       1.0  0.7773402333259581  0.14327552914619446  0.7019113898277283  1.0000
  Si  Si1       1.0  0.14758604764938354  0.5086996555328369  0.4460889399051666  1.0000
  O   O1        1.0  0.9770804047584533  0.46302303671836853  0.10127895325422287  1.0000
  O   O2        1.0  0.7318941950798035  0.686926007270813  0.6116429567337036  1.0000
  O   O3        1.0  0.15271715819835663  0.1635289341211319  0.4512973725795746  1.0000
