data_image0
_chemical_formula_structural       MgSiCaOCaSiO6
_chemical_formula_sum              "Mg1 Si2 Ca2 O7"
_cell_length_a       5.425376200256001
_cell_length_b       5.4256004539133995
_cell_length_c       7.677847385406494
_cell_angle_alpha    69.19184415558168
_cell_angle_beta     69.21755427078189
_cell_angle_gamma    59.93602004331716

_space_group_name_H-M_alt    "P 1"
_space_group_IT_number       1

loop_
  _space_group_symop_operation_xyz
  'x, y, z'

loop_
  _atom_site_type_symbol
  _atom_site_label
  _atom_site_symmetry_multiplicity
  _atom_site_fract_x
  _atom_site_fract_y
  _atom_site_fract_z
  _atom_site_occupancy
  Mg  Mg1       1.0  0.7103217244148254  0.5042257905006409  0.9711313843727111  1.0000
  Si  Si1       1.0  0.13212613761425018  0.9256143569946289  0.7042418718338013  1.0000
  Ca  Ca1       1.0  0.9927579164505005  0.7861929535865784  0.1289985477924347  1.0000
  O   O1        1.0  0.543664276599884  0.8010439872741699  0.1478935331106186  1.0000
  Ca  Ca2       1.0  0.42921552062034607  0.22172367572784424  0.8137233257293701  1.0000
  Si  Si2       1.0  0.28914812207221985  0.08195678144693375  0.23785851895809174  1.0000
  O   O2        1.0  0.20988398790359497  0.004365269094705582  0.470978856086731  1.0000
  O   O3        1.0  0.8781098127365112  0.8104848861694336  0.7929049134254456  1.0000
  O   O4        1.0  0.008007188327610493  0.1990325003862381  0.14729812741279602  1.0000
  O   O5        1.0  0.016803279519081105  0.20628076791763306  0.7945948243141174  1.0000
  O   O6        1.0  0.4145530164241791  0.6709221005439758  0.7930582761764526  1.0000
  O   O7        1.0  0.40353959798812866  0.3378716707229614  0.1492664068937302  1.0000
