data_image0
_chemical_formula_structural       SiCaSiO
_chemical_formula_sum              "Si2 Ca1 O1"
_cell_length_a       3.9347175206876437
_cell_length_b       3.4085491799653376
_cell_length_c       5.581363677978516
_cell_angle_alpha    90.10156058012338
_cell_angle_beta     90.05060054888348
_cell_angle_gamma    90.05379707695751

_space_group_name_H-M_alt    "P 1"
_space_group_IT_number       1

loop_
  _space_group_symop_operation_xyz
  'x, y, z'

loop_
  _atom_site_type_symbol
  _atom_site_label
  _atom_site_symmetry_multiplicity
  _atom_site_fract_x
  _atom_site_fract_y
  _atom_site_fract_z
  _atom_site_occupancy
  Si  Si1       1.0  0.15656049549579618  0.15099433064460754  0.2966339588165283  1.0000
  Ca  Ca1       1.0  0.6564484834671019  0.6505700349807739  0.6346470713615417  1.0000
  Si  Si2       1.0  0.6566736698150634  0.15046453475952146  0.06388763338327408  1.0000
  O   O1        1.0  0.15490196645259854  0.6510640382766724  0.4396771490573883  1.0000
