data_image0
_chemical_formula_structural       SiCa2MgSiOCaMgO3MgO2CaO5
_chemical_formula_sum              "Si2 Ca4 Mg3 O11"
_cell_length_a       5.781173347584192
_cell_length_b       5.782519654172324
_cell_length_c       9.017715454101562
_cell_angle_alpha    76.48501946444783
_cell_angle_beta     84.9446315498333
_cell_angle_gamma    69.94054236511985

_space_group_name_H-M_alt    "P 1"
_space_group_IT_number       1

loop_
  _space_group_symop_operation_xyz
  'x, y, z'

loop_
  _atom_site_type_symbol
  _atom_site_label
  _atom_site_symmetry_multiplicity
  _atom_site_fract_x
  _atom_site_fract_y
  _atom_site_fract_z
  _atom_site_occupancy
  Si  Si1       1.0  0.40822967886924744  0.44529038667678833  0.9229104518890381  1.0000
  Ca  Ca1       1.0  0.9259114265441893  0.34155529737472534  0.035982813686132445  1.0000
  Ca  Ca2       1.0  0.45488798618316645  0.0871697962284088  0.29428794980049133  1.0000
  Mg  Mg1       1.0  0.9573264122009276  0.9846395254135131  0.4850883483886719  1.0000
  Si  Si2       1.0  0.5311137437820435  0.8787474036216735  0.008844216354191328  1.0000
  O   O1        1.0  0.26464289426803583  0.44535645842552185  0.0888989567756653  1.0000
  Ca  Ca3       1.0  0.5002400875091553  0.8325872421264648  0.6307253241539001  1.0000
  Mg  Mg2       1.0  0.6970081329345703  0.4721735417842865  0.39445871114730835  1.0000
  O   O2        1.0  0.17723889648914337  0.17016306519508362  0.4997401535511017  1.0000
  O   O3        1.0  0.23739635944366452  0.5366587042808533  0.7759355306625366  1.0000
  O   O4        1.0  0.854023814201355  0.6816091537475586  0.48423460125923157  1.0000
  Mg  Mg3       1.0  0.23674429953098294  0.4377314150333404  0.5706207752227783  1.0000
  O   O5        1.0  0.614352822303772  0.1454828828573227  0.9393054246902466  1.0000
  O   O6        1.0  0.33966082334518427  0.71229487657547  0.4226316213607788  1.0000
  Ca  Ca4       1.0  0.07024241238832474  0.7534999847412109  0.23001548647880554  1.0000
  O   O7        1.0  0.5753822922706604  0.6543043851852417  0.8990683555603027  1.0000
  O   O8        1.0  0.24551557004451754  0.9833819270133971  0.04733284190297129  1.0000
  O   O9        1.0  0.7037186622619629  0.724957287311554  0.1561112850904465  1.0000
  O   O10       1.0  0.8291035890579224  0.17223471403121948  0.267020583152771  1.0000
  O   O11       1.0  0.6186441779136658  0.19119563698768616  0.5563493371009827  1.0000
