data_image0
_chemical_formula_structural       CaOSiCaOSiO2MgO3
_chemical_formula_sum              "Ca2 O7 Si2 Mg1"
_cell_length_a       5.366370912462464
_cell_length_b       5.359426103387269
_cell_length_c       7.883164882659912
_cell_angle_alpha    70.43837534360775
_cell_angle_beta     70.42597608074202
_cell_angle_gamma    60.37712198419448

_space_group_name_H-M_alt    "P 1"
_space_group_IT_number       1

loop_
  _space_group_symop_operation_xyz
  'x, y, z'

loop_
  _atom_site_type_symbol
  _atom_site_label
  _atom_site_symmetry_multiplicity
  _atom_site_fract_x
  _atom_site_fract_y
  _atom_site_fract_z
  _atom_site_occupancy
  Ca  Ca1       1.0  0.10192253440618516  0.31067594885826105  0.21664024889469147  1.0000
  O   O1        1.0  0.027144277468323708  0.6627432703971863  0.3311043083667755  1.0000
  Si  Si1       1.0  0.7524784803390503  0.9619615077972412  0.2642686069011688  1.0000
  Ca  Ca2       1.0  0.32923892140388494  0.5394502282142639  0.5324367880821228  1.0000
  O   O2        1.0  0.926249086856842  0.42872846126556396  0.7398856282234192  1.0000
  Si  Si2       1.0  0.9038299918174744  0.11316028982400894  0.8093285560607911  1.0000
  O   O3        1.0  0.21917237341403956  0.8435187339782715  0.7405322790145874  1.0000
  O   O4        1.0  0.8283595442771912  0.03838562220335007  0.03605796024203303  1.0000
  Mg  Mg1       1.0  0.5895742177963257  0.7983217239379882  0.7531729936599731  1.0000
  O   O5        1.0  0.4524810314178467  0.9209961295127869  0.33027034997940063  1.0000
  O   O6        1.0  0.6341385841369629  0.13695240020751953  0.740545928478241  1.0000
  O   O7        1.0  0.7104064822196959  0.23708198964595797  0.33117708563804626  1.0000
