data_image0
_chemical_formula_structural       CaSi2Mg2OCaO2MgO6
_chemical_formula_sum              "Ca2 Si2 Mg3 O9"
_cell_length_a       5.482798343652238
_cell_length_b       5.57456865520194
_cell_length_c       7.715281009674072
_cell_angle_alpha    70.63473430317833
_cell_angle_beta     83.68448898909669
_cell_angle_gamma    88.52444264017191

_space_group_name_H-M_alt    "P 1"
_space_group_IT_number       1

loop_
  _space_group_symop_operation_xyz
  'x, y, z'

loop_
  _atom_site_type_symbol
  _atom_site_label
  _atom_site_symmetry_multiplicity
  _atom_site_fract_x
  _atom_site_fract_y
  _atom_site_fract_z
  _atom_site_occupancy
  Ca  Ca1       1.0  0.03436274453997612  0.8917549848556519  0.6315423250198364  1.0000
  Si  Si1       1.0  0.19663220643997192  0.4293071925640106  0.3467063009738922  1.0000
  Si  Si2       1.0  0.9990733265876769  0.9965006113052368  0.19664786756038666  1.0000
  Mg  Mg1       1.0  0.5212591290473938  0.31271249055862427  0.02082547731697558  1.0000
  Mg  Mg2       1.0  0.5676959156990051  0.4504784941673279  0.6465622782707214  1.0000
  O   O1        1.0  0.2690383791923523  0.30313608050346375  0.5596030950546265  1.0000
  Ca  Ca2       1.0  0.5343526601791382  0.8354000449180603  0.9263509511947632  1.0000
  O   O2        1.0  0.7699093818664551  0.14874152839183807  0.7286826372146606  1.0000
  O   O3        1.0  0.21611763536930084  0.07970760762691498  0.02052692323923111  1.0000
  Mg  Mg3       1.0  0.044086575508117676  0.32912755012512207  0.8029254674911499  1.0000
  O   O4        1.0  0.42050859332084656  0.5014684796333313  0.19115868210792542  1.0000
  O   O5        1.0  0.7284108996391296  0.0236053429543972  0.1282934993505478  1.0000
  O   O6        1.0  0.030001195147633553  0.18698225915431976  0.32465696334838867  1.0000
  O   O7        1.0  0.03247737139463425  0.6963194608688354  0.3433513939380646  1.0000
  O   O8        1.0  0.3051705062389374  0.5952054858207703  0.7850594520568848  1.0000
  O   O9        1.0  0.7786997556686401  0.5654596090316772  0.8204843997955322  1.0000
