data_image0
_chemical_formula_structural       SiOCaO3CaMgSiO3
_chemical_formula_sum              "Si2 O7 Ca2 Mg1"
_cell_length_a       5.504685745107131
_cell_length_b       5.5114898329413595
_cell_length_c       7.501873016357422
_cell_angle_alpha    68.47145087598237
_cell_angle_beta     68.46928310359368
_cell_angle_gamma    60.07741645877512

_space_group_name_H-M_alt    "P 1"
_space_group_IT_number       1

loop_
  _space_group_symop_operation_xyz
  'x, y, z'

loop_
  _atom_site_type_symbol
  _atom_site_label
  _atom_site_symmetry_multiplicity
  _atom_site_fract_x
  _atom_site_fract_y
  _atom_site_fract_z
  _atom_site_occupancy
  Si  Si1       1.0  0.5371419191360474  0.3716230988502502  0.1295509040355682  1.0000
  O   O1        1.0  0.796559751033783  0.7947723865509033  0.5620377659797668  1.0000
  Ca  Ca1       1.0  0.4005689024925232  0.23639346659183502  0.5374862551689148  1.0000
  O   O2        1.0  0.42182624340057373  0.6335173845291138  0.5609824061393738  1.0000
  O   O3        1.0  0.8103652000427246  0.2697673439979553  0.2204331010580063  1.0000
  O   O4        1.0  0.27357903122901917  0.6441820263862609  0.22079157829284662  1.0000
  Ca  Ca2       1.0  0.8310620188713074  0.6666756868362427  0.24499690532684318  1.0000
  Mg  Mg1       1.0  0.11598554253578186  0.9514400959014893  0.39090299606323237  1.0000
  Si  Si2       1.0  0.6958276629447937  0.5323302745819092  0.65143221616745  1.0000
  O   O5        1.0  0.43617331981658936  0.10892154276371002  0.2205290049314499  1.0000
  O   O6        1.0  0.9584093689918518  0.25946077704429626  0.5607061386108398  1.0000
  O   O7        1.0  0.6168110966682433  0.4520667493343353  0.8906521797180176  1.0000
