data_image0
_chemical_formula_structural       SiO2Ca
_chemical_formula_sum              "Si1 O2 Ca1"
_cell_length_a       3.605950264421166
_cell_length_b       3.601497743818588
_cell_length_c       5.742912769317627
_cell_angle_alpha    91.74489033292538
_cell_angle_beta     108.65413624821387
_cell_angle_gamma    116.34620392542415

_space_group_name_H-M_alt    "P 1"
_space_group_IT_number       1

loop_
  _space_group_symop_operation_xyz
  'x, y, z'

loop_
  _atom_site_type_symbol
  _atom_site_label
  _atom_site_symmetry_multiplicity
  _atom_site_fract_x
  _atom_site_fract_y
  _atom_site_fract_z
  _atom_site_occupancy
  Si  Si1       1.0  0.7511157393455505  0.4240342676639557  0.19929355382919312  1.0000
  O   O1        1.0  0.37281331419944763  0.15472163259983063  0.91996169090271  1.0000
  O   O2        1.0  0.7538168430328369  0.3350498974323272  0.47843512892723083  1.0000
  Ca  Ca1       1.0  0.572282612323761  0.7536500096321106  0.6979275345802307  1.0000
