data_image0
_chemical_formula_structural       CaOCaSi2CaMgO2MgOMgO2CaO5
_chemical_formula_sum              "Ca4 O11 Si2 Mg3"
_cell_length_a       5.2573730317821745
_cell_length_b       7.217838562702569
_cell_length_c       8.403192520141602
_cell_angle_alpha    100.69215099888639
_cell_angle_beta     94.57321668783257
_cell_angle_gamma    99.19067742814563

_space_group_name_H-M_alt    "P 1"
_space_group_IT_number       1

loop_
  _space_group_symop_operation_xyz
  'x, y, z'

loop_
  _atom_site_type_symbol
  _atom_site_label
  _atom_site_symmetry_multiplicity
  _atom_site_fract_x
  _atom_site_fract_y
  _atom_site_fract_z
  _atom_site_occupancy
  Ca  Ca1       1.0  0.3876945376396179  0.531352162361145  0.8532611727714539  1.0000
  O   O1        1.0  0.8986073136329651  0.4752767682075501  0.470459908246994  1.0000
  Ca  Ca2       1.0  0.39184311032295227  0.9948707818984985  0.8638486266136169  1.0000
  Si  Si1       1.0  0.22091174125671387  0.5351994633674622  0.5075901746749878  1.0000
  Si  Si2       1.0  0.8940896987915039  0.2571367919445038  0.9036684036254883  1.0000
  Ca  Ca3       1.0  0.7104308009147644  0.4739862382411957  0.20228822529315948  1.0000
  Mg  Mg1       1.0  0.7317079305648804  0.9626520276069642  0.17908391356468198  1.0000
  O   O2        1.0  0.3095884323120117  0.732735276222229  0.6503970623016357  1.0000
  O   O3        1.0  0.8059452772140503  0.47037792205810547  0.9173501133918762  1.0000
  Mg  Mg2       1.0  0.26998355984687805  0.8125277757644653  0.2559487521648407  1.0000
  O   O4        1.0  0.20938242971897125  0.2608307898044586  0.923314094543457  1.0000
  Mg  Mg3       1.0  0.6483046412467957  0.2590821385383606  0.5430260896682739  1.0000
  O   O5        1.0  0.7657456994056702  0.16548460721969607  0.05274599045515059  1.0000
  O   O6        1.0  0.34387901425361633  0.3672092854976654  0.5822393298149109  1.0000
  Ca  Ca4       1.0  0.7389878034591675  0.8293781876564026  0.5217204093933105  1.0000
  O   O7        1.0  0.421389639377594  0.8009637594223022  0.044272258877754184  1.0000
  O   O8        1.0  0.910825252532959  0.787600576877594  0.2753968834877014  1.0000
  O   O9        1.0  0.5541760325431824  0.026793569326400757  0.3770238161087036  1.0000
  O   O10       1.0  0.363871306180954  0.580778181552887  0.34508535265922546  1.0000
  O   O11       1.0  0.7501012682914734  0.11439798027276994  0.7275174856185913  1.0000
