data_image0
_chemical_formula_structural       OMgCaO2
_chemical_formula_sum              "O3 Mg1 Ca1"
_cell_length_a       3.935180167609933
_cell_length_b       3.9383793897937114
_cell_length_c       3.939279556274414
_cell_angle_alpha    90.03691284413999
_cell_angle_beta     90.01910654347198
_cell_angle_gamma    90.00502269345978

_space_group_name_H-M_alt    "P 1"
_space_group_IT_number       1

loop_
  _space_group_symop_operation_xyz
  'x, y, z'

loop_
  _atom_site_type_symbol
  _atom_site_label
  _atom_site_symmetry_multiplicity
  _atom_site_fract_x
  _atom_site_fract_y
  _atom_site_fract_z
  _atom_site_occupancy
  O   O1        1.0  0.08341702073812486  0.9237611293792726  0.007520291022956371  1.0000
  Mg  Mg1       1.0  0.08404210954904558  0.9234105348587036  0.5074205994606018  1.0000
  Ca  Ca1       1.0  0.5841833949089051  0.423046737909317  0.006788579281419516  1.0000
  O   O2        1.0  0.08493725210428239  0.42271554470062256  0.5074087381362915  1.0000
  O   O3        1.0  0.5845292806625367  0.9228629469871521  0.5073611736297609  1.0000
