data_image0
_chemical_formula_structural       Ca2MgOSi
_chemical_formula_sum              "Ca2 Mg1 O1 Si1"
_cell_length_a       4.31931066667559
_cell_length_b       4.6926188987725705
_cell_length_c       4.691957950592041
_cell_angle_alpha    90.0085197504895
_cell_angle_beta     90.00153246693424
_cell_angle_gamma    90.00072650451608

_space_group_name_H-M_alt    "P 1"
_space_group_IT_number       1

loop_
  _space_group_symop_operation_xyz
  'x, y, z'

loop_
  _atom_site_type_symbol
  _atom_site_label
  _atom_site_symmetry_multiplicity
  _atom_site_fract_x
  _atom_site_fract_y
  _atom_site_fract_z
  _atom_site_occupancy
  Ca  Ca1       1.0  0.14553923904895782  0.8671536445617677  0.5746762752532959  1.0000
  Ca  Ca2       1.0  0.14561761915683746  0.3671804666519165  0.07480667531490326  1.0000
  Mg  Mg1       1.0  0.6458274126052856  0.8670849204063416  0.07475807517766953  1.0000
  O   O1        1.0  0.145652174949646  0.8672473430633545  0.07477553188800812  1.0000
  Si  Si1       1.0  0.6456171274185181  0.36728402972221375  0.5748170018196106  1.0000
