data_image0
_chemical_formula_structural       MgCaOSi
_chemical_formula_sum              "Mg1 Ca1 O1 Si1"
_cell_length_a       3.2436144644860794
_cell_length_b       3.243413448859664
_cell_length_c       7.355462551116943
_cell_angle_alpha    77.32486534971812
_cell_angle_beta     77.30809023393324
_cell_angle_gamma    60.05998401534785

_space_group_name_H-M_alt    "P 1"
_space_group_IT_number       1

loop_
  _space_group_symop_operation_xyz
  'x, y, z'

loop_
  _atom_site_type_symbol
  _atom_site_label
  _atom_site_symmetry_multiplicity
  _atom_site_fract_x
  _atom_site_fract_y
  _atom_site_fract_z
  _atom_site_occupancy
  Mg  Mg1       1.0  0.048225898295640945  0.8079062104225159  0.5862581729888916  1.0000
  Ca  Ca1       1.0  0.5933051705360413  0.35317155718803406  0.9503926634788513  1.0000
  O   O1        1.0  0.3262355327606201  0.08642358332872391  0.7514836192131044  1.0000
  Si  Si1       1.0  0.8160505890846252  0.5755101442337035  0.2822417914867401  1.0000
