data_image0
_chemical_formula_structural       CaOCaMgSiO2MgOSiO2
_chemical_formula_sum              "Ca2 O6 Mg2 Si2"
_cell_length_a       5.255464136692147
_cell_length_b       5.25437211990464
_cell_length_c       7.0053205490112305
_cell_angle_alpha    90.00003665542506
_cell_angle_beta     90.0086358639519
_cell_angle_gamma    60.106129894027

_space_group_name_H-M_alt    "P 1"
_space_group_IT_number       1

loop_
  _space_group_symop_operation_xyz
  'x, y, z'

loop_
  _atom_site_type_symbol
  _atom_site_label
  _atom_site_symmetry_multiplicity
  _atom_site_fract_x
  _atom_site_fract_y
  _atom_site_fract_z
  _atom_site_occupancy
  Ca  Ca1       1.0  0.07590810954570777  0.3227755725383758  0.06549692153930664  1.0000
  O   O1        1.0  0.38341224193573004  0.9667031168937682  0.33722391724586487  1.0000
  Ca  Ca2       1.0  0.07609449326992035  0.32286757230758667  0.5656504034996033  1.0000
  Mg  Mg1       1.0  0.40797340869903564  0.6563299298286438  0.8495149612426758  1.0000
  Si  Si1       1.0  0.4085785448551178  0.6560731530189514  0.23193462193012238  1.0000
  O   O2        1.0  0.02730265073478222  0.01472865045070648  0.7929859161376953  1.0000
  O   O3        1.0  0.7682638764381409  0.6794926524162291  0.7940346598625183  1.0000
  Mg  Mg2       1.0  0.7440872788429259  0.9881532192230225  0.28172898292541504  1.0000
  O   O4        1.0  0.4317862391471863  0.27454826235771174  0.7940549254417419  1.0000
  Si  Si2       1.0  0.7422226071357727  0.9896270632743835  0.898908793926239  1.0000
  O   O5        1.0  0.12379968166351314  0.6315673589706421  0.33770304918289185  1.0000
  O   O6        1.0  0.7194977402687074  0.37174257636070246  0.33780437707901  1.0000
