data_image0
_chemical_formula_structural       SiCaSiO
_chemical_formula_sum              "Si2 Ca1 O1"
_cell_length_a       3.794323777915619
_cell_length_b       3.796637482609597
_cell_length_c       5.7029314041137695
_cell_angle_alpha    89.96614525622523
_cell_angle_beta     90.02402427927412
_cell_angle_gamma    120.03339035466985

_space_group_name_H-M_alt    "P 1"
_space_group_IT_number       1

loop_
  _space_group_symop_operation_xyz
  'x, y, z'

loop_
  _atom_site_type_symbol
  _atom_site_label
  _atom_site_symmetry_multiplicity
  _atom_site_fract_x
  _atom_site_fract_y
  _atom_site_fract_z
  _atom_site_occupancy
  Si  Si1       1.0  0.6777256727218627  0.802720546722412  0.3587856590747833  1.0000
  Ca  Ca1       1.0  0.34496918320655817  0.13559518754482267  0.7589074373245239  1.0000
  Si  Si2       1.0  0.01102619245648384  0.4688625633716583  0.2039870321750641  1.0000
  O   O1        1.0  0.011837468482553928  0.4691766798496246  0.9084815979003906  1.0000
