data_image0
_chemical_formula_structural       MgCaOMgSi2O5CaO3
_chemical_formula_sum              "Mg2 Ca2 O9 Si2"
_cell_length_a       5.554414984023737
_cell_length_b       5.393885344694755
_cell_length_c       7.496703147888184
_cell_angle_alpha    96.24659990801656
_cell_angle_beta     88.36757352070921
_cell_angle_gamma    123.17316250899957

_space_group_name_H-M_alt    "P 1"
_space_group_IT_number       1

loop_
  _space_group_symop_operation_xyz
  'x, y, z'

loop_
  _atom_site_type_symbol
  _atom_site_label
  _atom_site_symmetry_multiplicity
  _atom_site_fract_x
  _atom_site_fract_y
  _atom_site_fract_z
  _atom_site_occupancy
  Mg  Mg1       1.0  0.9235391020774842  0.21128533780574799  0.010348431766033174  1.0000
  Ca  Ca1       1.0  0.46606248617172247  0.5119630694389343  0.5386536121368408  1.0000
  O   O1        1.0  0.05476026982069016  0.5266749262809753  0.5912353992462159  1.0000
  Mg  Mg2       1.0  0.26995915174484253  0.9186005592346191  0.7598855495452882  1.0000
  Si  Si1       1.0  0.5092927813529968  0.43847382068634033  0.07496050745248796  1.0000
  Si  Si2       1.0  0.800942361354828  0.16934838891029358  0.5873005986213685  1.0000
  O   O2        1.0  0.32607874274253845  0.3054499328136444  0.8787963986396791  1.0000
  O   O3        1.0  0.08298976719379425  0.6744190454483032  0.9660689234733583  1.0000
  O   O4        1.0  0.6887562274932861  0.022957822307944298  0.7797248363494874  1.0000
  O   O5        1.0  0.2901220917701721  0.4549366235733033  0.22323192656040194  1.0000
  O   O6        1.0  0.8011087775230409  0.7836516499519348  0.07199491560459138  1.0000
  Ca  Ca2       1.0  0.1624978482723236  0.8182802200317383  0.27938064932823187  1.0000
  O   O7        1.0  0.49102562665939337  0.1058390811085701  0.5179722309112549  1.0000
  O   O8        1.0  0.6141902208328247  0.23812851309776306  0.14688685536384585  1.0000
  O   O9        1.0  0.9002111554145814  0.960917294025421  0.4757180511951447  1.0000
