data_image0
_chemical_formula_structural       SiCaOCaOMgO2SiO2
_chemical_formula_sum              "Si2 Ca2 O6 Mg1"
_cell_length_a       5.507497569938028
_cell_length_b       5.853846704861581
_cell_length_c       5.866244792938232
_cell_angle_alpha    107.14412439734296
_cell_angle_beta     101.78462578527382
_cell_angle_gamma    122.8518165336019

_space_group_name_H-M_alt    "P 1"
_space_group_IT_number       1

loop_
  _space_group_symop_operation_xyz
  'x, y, z'

loop_
  _atom_site_type_symbol
  _atom_site_label
  _atom_site_symmetry_multiplicity
  _atom_site_fract_x
  _atom_site_fract_y
  _atom_site_fract_z
  _atom_site_occupancy
  Si  Si1       1.0  0.7489706873893738  0.5862583518028259  0.7994212508201599  1.0000
  Ca  Ca1       1.0  0.12910109758377075  0.8964216709136964  0.3984357714653015  1.0000
  O   O1        1.0  0.6256530284881592  0.454897403717041  0.4612500369548797  1.0000
  Ca  Ca2       1.0  0.12193974107503892  0.3626748025417328  0.8731619119644164  1.0000
  O   O2        1.0  0.12166056036949159  0.4725202023983002  0.2927227318286896  1.0000
  Mg  Mg1       1.0  0.6259866952896118  0.13016086816787723  0.1360846906900406  1.0000
  O   O3        1.0  0.6270455718040467  0.8042821884155275  0.8101770877838135  1.0000
  O   O4        1.0  0.521904706954956  0.30475759506225586  0.8550651669502257  1.0000
  Si  Si2       1.0  0.50341796875  0.673057496547699  0.4717847108840942  1.0000
  O   O5        1.0  0.7292335629463196  0.95443195104599  0.41631507873535156  1.0000
  O   O6        1.0  0.1306583136320114  0.7886908650398254  0.9804975986480712  1.0000
