data_image0
_chemical_formula_structural       Mg2Ca2Si2O2
_chemical_formula_sum              "Mg2 Ca2 Si2 O2"
_cell_length_a       4.198862245288614
_cell_length_b       4.4484416588173445
_cell_length_c       7.9805521965026855
_cell_angle_alpha    90.83989728044978
_cell_angle_beta     89.95809246540568
_cell_angle_gamma    89.90351925305461

_space_group_name_H-M_alt    "P 1"
_space_group_IT_number       1

loop_
  _space_group_symop_operation_xyz
  'x, y, z'

loop_
  _atom_site_type_symbol
  _atom_site_label
  _atom_site_symmetry_multiplicity
  _atom_site_fract_x
  _atom_site_fract_y
  _atom_site_fract_z
  _atom_site_occupancy
  Mg  Mg1       1.0  0.6777293682098389  0.3553638160228729  0.8047778606414795  1.0000
  Mg  Mg2       1.0  0.17727990448474884  0.8439650535583496  0.8117513060569763  1.0000
  Ca  Ca1       1.0  0.17775344848632812  0.36473527550697327  0.15999048948287964  1.0000
  Ca  Ca2       1.0  0.677664041519165  0.8187187314033507  0.46501675248146057  1.0000
  Si  Si1       1.0  0.6777179837226868  0.8786892294883728  0.05353720486164093  1.0000
  Si  Si2       1.0  0.1773611307144165  0.3389134109020233  0.582452118396759  1.0000
  O   O1        1.0  0.17807719111442566  0.5772340893745422  0.412639856338501  1.0000
  O   O2        1.0  0.6773827075958252  0.8621751666069031  0.8127846717834473  1.0000
