data_image0
_chemical_formula_structural       SiOSiMg
_chemical_formula_sum              "Si2 O1 Mg1"
_cell_length_a       3.6443138765443024
_cell_length_b       3.6471877709779807
_cell_length_c       5.792171001434326
_cell_angle_alpha    89.9626140487962
_cell_angle_beta     90.03122329907461
_cell_angle_gamma    120.11871226634919

_space_group_name_H-M_alt    "P 1"
_space_group_IT_number       1

loop_
  _space_group_symop_operation_xyz
  'x, y, z'

loop_
  _atom_site_type_symbol
  _atom_site_label
  _atom_site_symmetry_multiplicity
  _atom_site_fract_x
  _atom_site_fract_y
  _atom_site_fract_z
  _atom_site_occupancy
  Si  Si1       1.0  0.6387019157409668  0.43443065881729126  0.9932690262794495  1.0000
  O   O1        1.0  0.6391381025314331  0.43480056524276733  0.6924111247062683  1.0000
  Si  Si2       1.0  0.3064509332180024  0.7679893970489503  0.14762134850025177  1.0000
  Mg  Mg1       1.0  0.3060639202594757  0.7677430510520935  0.601481020450592  1.0000
