data_image0
_chemical_formula_structural       Ca2SiMgO6
_chemical_formula_sum              "Ca2 Si1 Mg1 O6"
_cell_length_a       5.403265919990677
_cell_length_b       5.401750942878389
_cell_length_c       5.402856349945068
_cell_angle_alpha    59.90080073411149
_cell_angle_beta     59.8960247417729
_cell_angle_gamma    59.92307485513964

_space_group_name_H-M_alt    "P 1"
_space_group_IT_number       1

loop_
  _space_group_symop_operation_xyz
  'x, y, z'

loop_
  _atom_site_type_symbol
  _atom_site_label
  _atom_site_symmetry_multiplicity
  _atom_site_fract_x
  _atom_site_fract_y
  _atom_site_fract_z
  _atom_site_occupancy
  Ca  Ca1       1.0  0.36959969997406006  0.6696029901504518  0.004574631340801716  1.0000
  Ca  Ca2       1.0  0.8696942925453186  0.16983170807361603  0.5048395991325378  1.0000
  Si  Si1       1.0  0.6196847558021545  0.9199192523956299  0.2544829249382019  1.0000
  Mg  Mg1       1.0  0.1196636110544205  0.41963720321655273  0.7548775672912598  1.0000
  O   O1        1.0  0.8532468080520629  0.15346114337444305  0.021132919937372208  1.0000
  O   O2        1.0  0.3859232366085053  0.1531909704208374  0.021358110010623894  1.0000
  O   O3        1.0  0.3860600888729095  0.15332099795341492  0.48861089348793035  1.0000
  O   O4        1.0  0.853373646736145  0.6858818531036377  0.48864987492561346  1.0000
  O   O5        1.0  0.3860673308372497  0.6858649253845215  0.4883273541927338  1.0000
  O   O6        1.0  0.8533180952072144  0.6856853365898132  0.02134140022099018  1.0000
