data_image0
_chemical_formula_structural       CaO2CaO2MgO2Si
_chemical_formula_sum              "Ca2 O6 Mg1 Si1"
_cell_length_a       5.369776191984648
_cell_length_b       5.369680563803647
_cell_length_c       5.373991012573242
_cell_angle_alpha    60.043810583920575
_cell_angle_beta     60.00123926084064
_cell_angle_gamma    60.01364362176424

_space_group_name_H-M_alt    "P 1"
_space_group_IT_number       1

loop_
  _space_group_symop_operation_xyz
  'x, y, z'

loop_
  _atom_site_type_symbol
  _atom_site_label
  _atom_site_symmetry_multiplicity
  _atom_site_fract_x
  _atom_site_fract_y
  _atom_site_fract_z
  _atom_site_occupancy
  Ca  Ca1       1.0  0.2599796056747437  0.8429222702980042  0.300270676612854  1.0000
  O   O1        1.0  0.7756254076957703  0.8268199563026428  0.8164220452308655  1.0000
  O   O2        1.0  0.7759293913841248  0.358804851770401  0.28441479802131653  1.0000
  Ca  Ca2       1.0  0.7598879337310791  0.3429929316043854  0.800275981426239  1.0000
  O   O3        1.0  0.2439955323934555  0.35907605290412903  0.8162000775337219  1.0000
  O   O4        1.0  0.776024341583252  0.8270842432975769  0.284027636051178  1.0000
  Mg  Mg1       1.0  0.5098841190338135  0.0928390696644783  0.5501136183738708  1.0000
  O   O5        1.0  0.24380365014076227  0.8269449472427368  0.8163544535636902  1.0000
  O   O6        1.0  0.24396008253097534  0.35892531275749207  0.2840646803379059  1.0000
  Si  Si1       1.0  0.009891561232507229  0.5929227471351624  0.05017951875925064  1.0000
