data_image0
_chemical_formula_structural       CaOSi2
_chemical_formula_sum              "Ca1 O1 Si2"
_cell_length_a       3.7500109827700747
_cell_length_b       3.7552441886234633
_cell_length_c       6.322197437286377
_cell_angle_alpha    72.9301426142702
_cell_angle_beta     72.88194324390975
_cell_angle_gamma    60.130515188479876

_space_group_name_H-M_alt    "P 1"
_space_group_IT_number       1

loop_
  _space_group_symop_operation_xyz
  'x, y, z'

loop_
  _atom_site_type_symbol
  _atom_site_label
  _atom_site_symmetry_multiplicity
  _atom_site_fract_x
  _atom_site_fract_y
  _atom_site_fract_z
  _atom_site_occupancy
  Ca  Ca1       1.0  0.2639915645122528  0.11407831311225893  0.24805955588817596  1.0000
  O   O1        1.0  0.650130569934845  0.5009216070175171  0.08830441534519196  1.0000
  Si  Si1       1.0  0.7450113296508789  0.5952599048614502  0.804510235786438  1.0000
  Si  Si2       1.0  0.46339336037635803  0.312460720539093  0.6507048606872559  1.0000
