data_image0
_chemical_formula_structural       MgOSiO
_chemical_formula_sum              "Mg1 O2 Si1"
_cell_length_a       3.0643382567225355
_cell_length_b       3.0698408685529976
_cell_length_c       5.8304901123046875
_cell_angle_alpha    74.98413863297124
_cell_angle_beta     74.90164280092448
_cell_angle_gamma    60.57439477022028

_space_group_name_H-M_alt    "P 1"
_space_group_IT_number       1

loop_
  _space_group_symop_operation_xyz
  'x, y, z'

loop_
  _atom_site_type_symbol
  _atom_site_label
  _atom_site_symmetry_multiplicity
  _atom_site_fract_x
  _atom_site_fract_y
  _atom_site_fract_z
  _atom_site_occupancy
  Mg  Mg1       1.0  0.6170979738235474  0.38445720076560974  0.9445623159408569  1.0000
  O   O1        1.0  0.01660035364329815  0.7843826413154602  0.7456505298614502  1.0000
  Si  Si1       1.0  0.11659735441207886  0.8855981230735779  0.44445616006851196  1.0000
  O   O2        1.0  0.21714027225971222  0.9850999712944031  0.14301902055740356  1.0000
