data_image0
_chemical_formula_structural       Ca2MgCa2O3SiCaOSiO6
_chemical_formula_sum              "Ca5 Mg1 O10 Si2"
_cell_length_a       6.323696076250484
_cell_length_b       5.807708466340424
_cell_length_c       6.791255950927734
_cell_angle_alpha    89.98485314431926
_cell_angle_beta     90.03771880870333
_cell_angle_gamma    88.78717266060232

_space_group_name_H-M_alt    "P 1"
_space_group_IT_number       1

loop_
  _space_group_symop_operation_xyz
  'x, y, z'

loop_
  _atom_site_type_symbol
  _atom_site_label
  _atom_site_symmetry_multiplicity
  _atom_site_fract_x
  _atom_site_fract_y
  _atom_site_fract_z
  _atom_site_occupancy
  Ca  Ca1       1.0  0.21862353384494781  0.6367833614349366  0.5540414452552795  1.0000
  Ca  Ca2       1.0  0.5038471817970276  0.19386467337608337  0.5467093586921692  1.0000
  Mg  Mg1       1.0  0.6580522656440735  0.7039659023284913  0.29842570424079895  1.0000
  Ca  Ca3       1.0  0.5037861466407776  0.19437330961227417  0.05049523711204529  1.0000
  Ca  Ca4       1.0  0.020977193489670753  0.14162530004978183  0.7985150814056396  1.0000
  O   O1        1.0  0.7262766361236572  0.3749546408653259  0.7988453507423401  1.0000
  O   O2        1.0  0.29522010684013367  0.37106513977050787  0.798006534576416  1.0000
  O   O3        1.0  0.972979724407196  0.6999365091323854  0.2984180152416229  1.0000
  Si  Si1       1.0  0.006556970067322254  0.987151563167572  0.298857718706131  1.0000
  Ca  Ca5       1.0  0.2176583707332611  0.6359353065490723  0.042951907962560654  1.0000
  O   O4        1.0  0.15367531776428223  0.04610910266637802  0.49160417914390564  1.0000
  Si  Si2       1.0  0.7077837586402893  0.6624763607978821  0.7991865277290344  1.0000
  O   O5        1.0  0.9564241766929626  0.74677973985672  0.7991219758987427  1.0000
  O   O6        1.0  0.15263646841049194  0.04756929725408554  0.10479290783405304  1.0000
  O   O7        1.0  0.5786411762237549  0.7716773748397827  0.99554044008255  1.0000
  O   O8        1.0  0.4315723478794098  0.4700544774532318  0.2987024784088135  1.0000
  O   O9        1.0  0.5791943669319153  0.7712700963020326  0.6018858551979065  1.0000
  O   O10       1.0  0.7569329738616943  0.085697703063488  0.29988864064216614  1.0000
