data_image0
_chemical_formula_structural       MgSiCaO
_chemical_formula_sum              "Mg1 Si1 Ca1 O1"
_cell_length_a       3.4291473361762206
_cell_length_b       3.430154722095403
_cell_length_c       7.318406105041504
_cell_angle_alpha    89.97238122004876
_cell_angle_beta     90.03933073163452
_cell_angle_gamma    120.13303979433985

_space_group_name_H-M_alt    "P 1"
_space_group_IT_number       1

loop_
  _space_group_symop_operation_xyz
  'x, y, z'

loop_
  _atom_site_type_symbol
  _atom_site_label
  _atom_site_symmetry_multiplicity
  _atom_site_fract_x
  _atom_site_fract_y
  _atom_site_fract_z
  _atom_site_occupancy
  Mg  Mg1       1.0  0.0029301922768354416  0.108317531645298  0.6407780051231384  1.0000
  Si  Si1       1.0  0.3384029269218445  0.7761942744255066  0.374460369348526  1.0000
  Ca  Ca1       1.0  0.6704261302947998  0.44190415740013117  0.035158686339855194  1.0000
  O   O1        1.0  0.003889918327331543  0.10827777534723282  0.8981564044952393  1.0000
