data_image0
_chemical_formula_structural       OMgO2CaSiMgO2MgO
_chemical_formula_sum              "O6 Mg3 Ca1 Si1"
_cell_length_a       5.800441566265455
_cell_length_b       5.388949337484925
_cell_length_c       5.055253028869629
_cell_angle_alpha    109.59252238321754
_cell_angle_beta     102.37694142108188
_cell_angle_gamma    82.22460305458381

_space_group_name_H-M_alt    "P 1"
_space_group_IT_number       1

loop_
  _space_group_symop_operation_xyz
  'x, y, z'

loop_
  _atom_site_type_symbol
  _atom_site_label
  _atom_site_symmetry_multiplicity
  _atom_site_fract_x
  _atom_site_fract_y
  _atom_site_fract_z
  _atom_site_occupancy
  O   O1        1.0  0.6692517995834351  0.2066259831190109  0.9468611478805542  1.0000
  Mg  Mg1       1.0  0.9866844415664673  0.37710461020469666  0.04549961537122722  1.0000
  O   O2        1.0  0.05601176992058753  0.7200515270233154  0.04913643747568126  1.0000
  O   O3        1.0  0.5417333841323853  0.709688127040863  0.7536419630050659  1.0000
  Ca  Ca1       1.0  0.8883402347564697  0.802958309650421  0.660555064678192  1.0000
  Si  Si1       1.0  0.4875187277793884  0.005973126739263534  0.9839402437210082  1.0000
  Mg  Mg2       1.0  0.403024286031723  0.35166624188423157  0.6548420786857605  1.0000
  O   O4        1.0  0.5074398517608643  0.016421081498265266  0.31611213088035583  1.0000
  O   O5        1.0  0.22002525627613068  0.10551893711090088  0.807427704334259  1.0000
  Mg  Mg3       1.0  0.2927669584751129  0.7819030284881592  0.39234313368797297  1.0000
  O   O6        1.0  0.13177445530891418  0.48580029606819153  0.43651968240737915  1.0000
