data_image0
_chemical_formula_structural       SiOCaMgO2
_chemical_formula_sum              "Si1 O3 Ca1 Mg1"
_cell_length_a       3.4213338105758404
_cell_length_b       3.42346175991904
_cell_length_c       9.192098617553711
_cell_angle_alpha    79.21819462721768
_cell_angle_beta     79.24263262745357
_cell_angle_gamma    60.106945023976074

_space_group_name_H-M_alt    "P 1"
_space_group_IT_number       1

loop_
  _space_group_symop_operation_xyz
  'x, y, z'

loop_
  _atom_site_type_symbol
  _atom_site_label
  _atom_site_symmetry_multiplicity
  _atom_site_fract_x
  _atom_site_fract_y
  _atom_site_fract_z
  _atom_site_occupancy
  Si  Si1       1.0  0.9095709323883057  0.3000113368034363  0.9079973101615906  1.0000
  O   O1        1.0  0.04484829679131508  0.43046453595161444  0.5184357762336731  1.0000
  Ca  Ca1       1.0  0.34044787287712097  0.7276395559310913  0.6252265572547913  1.0000
  Mg  Mg1       1.0  0.1159514710307121  0.5015555024147034  0.3028399646282196  1.0000
  O   O2        1.0  0.46609184145927424  0.8511351346969604  0.2550613284111023  1.0000
  O   O3        1.0  0.5558604001998901  0.9426375031471252  0.9738335013389587  1.0000
