data_image0
_chemical_formula_structural       CaO3MgOSiO2
_chemical_formula_sum              "Ca1 O6 Mg1 Si1"
_cell_length_a       4.888495205427322
_cell_length_b       5.14379376547342
_cell_length_c       5.140440940856934
_cell_angle_alpha    119.97788540732853
_cell_angle_beta     90.03096375150241
_cell_angle_gamma    90.07572881125792

_space_group_name_H-M_alt    "P 1"
_space_group_IT_number       1

loop_
  _space_group_symop_operation_xyz
  'x, y, z'

loop_
  _atom_site_type_symbol
  _atom_site_label
  _atom_site_symmetry_multiplicity
  _atom_site_fract_x
  _atom_site_fract_y
  _atom_site_fract_z
  _atom_site_occupancy
  Ca  Ca1       1.0  0.4161621332168579  0.9589170813560486  0.6401421427726747  1.0000
  O   O1        1.0  0.7125312685966492  0.9163863062858583  0.9824234247207643  1.0000
  O   O2        1.0  0.7125869393348694  0.34431374073028564  0.6821299195289612  1.0000
  O   O3        1.0  0.7120918035507202  0.6153602600097656  0.2545813620090485  1.0000
  Mg  Mg1       1.0  0.9156163930892944  0.29263836145401  0.3068718910217285  1.0000
  O   O4        1.0  0.12017824500799179  0.9159771203994751  0.25390592217445374  1.0000
  Si  Si1       1.0  0.9156622290611267  0.6255145072937012  0.973251760005951  1.0000
  O   O5        1.0  0.11949575692415237  0.3449932038784027  0.9841737747192384  1.0000
  O   O6        1.0  0.11993665993213654  0.616482138633728  0.6822816729545593  1.0000
