data_image0
_chemical_formula_structural       MgCaMgO2SiO2
_chemical_formula_sum              "Mg2 Ca1 O4 Si1"
_cell_length_a       5.132556902616673
_cell_length_b       5.137518344703873
_cell_length_c       5.126594543457031
_cell_angle_alpha    119.24835492363256
_cell_angle_beta     91.21798903963975
_cell_angle_gamma    119.25538064690942

_space_group_name_H-M_alt    "P 1"
_space_group_IT_number       1

loop_
  _space_group_symop_operation_xyz
  'x, y, z'

loop_
  _atom_site_type_symbol
  _atom_site_label
  _atom_site_symmetry_multiplicity
  _atom_site_fract_x
  _atom_site_fract_y
  _atom_site_fract_z
  _atom_site_occupancy
  Mg  Mg1       1.0  0.16611279547214508  0.029937906190752983  0.716606855392456  1.0000
  Ca  Ca1       1.0  0.4153555929660797  0.5294034481048584  0.46643704175949097  1.0000
  Mg  Mg2       1.0  0.6654497385025024  0.02968759834766388  0.21636958420276642  1.0000
  O   O1        1.0  0.24477192759513855  0.9162492156028748  0.2942352592945099  1.0000
  O   O2        1.0  0.5864925384521484  0.5295616388320923  0.024531923234462738  1.0000
  Si  Si1       1.0  0.9163866639137268  0.5305875539779663  0.9668574929237366  1.0000
  O   O3        1.0  0.8578032851219177  0.14236140251159668  0.9085046648979187  1.0000
  O   O4        1.0  0.9750670194625854  0.5309778451919556  0.6375094056129456  1.0000
