data_image0
_chemical_formula_structural       O2SiO3MgCaSiO2
_chemical_formula_sum              "O7 Si2 Mg1 Ca1"
_cell_length_a       4.789781733905591
_cell_length_b       5.627386505603841
_cell_length_c       5.624205589294434
_cell_angle_alpha    107.59677622740048
_cell_angle_beta     96.43697778960748
_cell_angle_gamma    96.48721423012461

_space_group_name_H-M_alt    "P 1"
_space_group_IT_number       1

loop_
  _space_group_symop_operation_xyz
  'x, y, z'

loop_
  _atom_site_type_symbol
  _atom_site_label
  _atom_site_symmetry_multiplicity
  _atom_site_fract_x
  _atom_site_fract_y
  _atom_site_fract_z
  _atom_site_occupancy
  O   O1        1.0  0.3030584156513214  0.47121790051460266  0.4549483060836792  1.0000
  O   O2        1.0  0.12179318815469742  0.11823505163192749  0.037853214889764786  1.0000
  Si  Si1       1.0  0.23616361618041992  0.8707840442657471  0.853839099407196  1.0000
  O   O3        1.0  0.40624916553497314  0.726808488368988  0.02230668067932129  1.0000
  O   O4        1.0  0.9374043941497803  0.7005576491355896  0.6832463145256042  1.0000
  O   O5        1.0  0.8379128575325012  0.13157445192337036  0.42911091446876526  1.0000
  Mg  Mg1       1.0  0.6206386685371399  0.7716971039772034  0.3816220462322235  1.0000
  Ca  Ca1       1.0  0.6208579540252686  0.38846394419670105  0.7661653757095337  1.0000
  Si  Si2       1.0  0.004855626728385687  0.2997329831123352  0.28442147374153137  1.0000
  O   O6        1.0  0.43699684739112854  0.9739025831222534  0.680672287940979  1.0000
  O   O7        1.0  0.8015252947807312  0.47183966636657715  0.18254375457763672  1.0000
