data_image0
_chemical_formula_structural       CaMgO2SiOCaSiO4
_chemical_formula_sum              "Ca2 Mg1 O7 Si2"
_cell_length_a       5.40346398813846
_cell_length_b       5.404465888647623
_cell_length_c       7.921894550323486
_cell_angle_alpha    70.19222795652436
_cell_angle_beta     70.22583948984189
_cell_angle_gamma    60.07788677927188

_space_group_name_H-M_alt    "P 1"
_space_group_IT_number       1

loop_
  _space_group_symop_operation_xyz
  'x, y, z'

loop_
  _atom_site_type_symbol
  _atom_site_label
  _atom_site_symmetry_multiplicity
  _atom_site_fract_x
  _atom_site_fract_y
  _atom_site_fract_z
  _atom_site_occupancy
  Ca  Ca1       1.0  0.23525410890579224  0.2011479884386063  0.39816227555274963  1.0000
  Mg  Mg1       1.0  0.7235915660858154  0.6894605159759521  0.9331873059272766  1.0000
  O   O1        1.0  0.5875287652015685  0.8089841008186341  0.5095951557159424  1.0000
  O   O2        1.0  0.7688283324241638  0.02764711901545525  0.9197493195533751  1.0000
  Si  Si1       1.0  0.8857448101043701  0.8532108664512634  0.4428585469722748  1.0000
  O   O3        1.0  0.16094282269477844  0.5554500222206116  0.5102655291557312  1.0000
  Ca  Ca2       1.0  0.4632607102394104  0.42972108721733093  0.7131715416908264  1.0000
  Si  Si2       1.0  0.03874632343649864  0.0035115480422973633  0.9885823726654053  1.0000
  O   O4        1.0  0.8424389362335205  0.12891101837158203  0.5088493227958679  1.0000
  O   O5        1.0  0.06001262366771698  0.31910964846611023  0.920038104057312  1.0000
  O   O6        1.0  0.3537594377994538  0.7357100248336792  0.9188200831413269  1.0000
  O   O7        1.0  0.9629123210906982  0.9282735586166382  0.214898481965065  1.0000
