data_image0
_chemical_formula_structural       SiCaOMgO5
_chemical_formula_sum              "Si1 Ca1 O6 Mg1"
_cell_length_a       5.107409895727316
_cell_length_b       5.109812084613323
_cell_length_c       4.915683746337891
_cell_angle_alpha    90.06374865248297
_cell_angle_beta     90.07376854538164
_cell_angle_gamma    119.98475920245608

_space_group_name_H-M_alt    "P 1"
_space_group_IT_number       1

loop_
  _space_group_symop_operation_xyz
  'x, y, z'

loop_
  _atom_site_type_symbol
  _atom_site_label
  _atom_site_symmetry_multiplicity
  _atom_site_fract_x
  _atom_site_fract_y
  _atom_site_fract_z
  _atom_site_occupancy
  Si  Si1       1.0  0.9509695172309877  0.12215945124626161  0.6171255111694336  1.0000
  Ca  Ca1       1.0  0.2843548059463502  0.7889724969863893  0.11738650500774384  1.0000
  O   O1        1.0  0.6699891686439514  0.8313769102096558  0.8215371370315552  1.0000
  Mg  Mg1       1.0  0.6173126101493835  0.4554716348648071  0.6172326803207397  1.0000
  O   O2        1.0  0.2421374320983887  0.4025190770626068  0.4126158654689789  1.0000
  O   O3        1.0  0.6700744032859802  0.1324789673089981  0.4133269190788269  1.0000
  O   O4        1.0  0.9406965970993043  0.40389439463615423  0.8209911584854126  1.0000
  O   O5        1.0  0.9415917396545411  0.8302485942840576  0.4133818745613098  1.0000
  O   O6        1.0  0.24299199879169467  0.13291075825691223  0.8212331533432007  1.0000
