data_image0
_chemical_formula_structural       MgCa2OSiCa2SiO3CaO4
_chemical_formula_sum              "Mg1 Ca5 O8 Si2"
_cell_length_a       5.2308481816086685
_cell_length_b       7.1802003722447205
_cell_length_c       7.211557865142822
_cell_angle_alpha    119.65333236905977
_cell_angle_beta     89.7942567226239
_cell_angle_gamma    90.01229685268272

_space_group_name_H-M_alt    "P 1"
_space_group_IT_number       1

loop_
  _space_group_symop_operation_xyz
  'x, y, z'

loop_
  _atom_site_type_symbol
  _atom_site_label
  _atom_site_symmetry_multiplicity
  _atom_site_fract_x
  _atom_site_fract_y
  _atom_site_fract_z
  _atom_site_occupancy
  Mg  Mg1       1.0  0.8613640666007996  0.1021723523736  0.7909356951713561  1.0000
  Ca  Ca1       1.0  0.3501419723033905  0.941285729408264  0.9492833614349364  1.0000
  Ca  Ca2       1.0  0.3486408591270447  0.4255586266517639  0.44006350636482233  1.0000
  O   O1        1.0  0.309535950422287  0.05721450597047806  0.318437397480011  1.0000
  Si  Si1       1.0  0.3794258236885071  0.9335066676139832  0.4577996730804442  1.0000
  Ca  Ca3       1.0  0.8464304804801941  0.5945000052452087  0.28364497423171997  1.0000
  Ca  Ca4       1.0  0.35025477409362793  0.420291930437088  0.9508515596389769  1.0000
  Si  Si2       1.0  0.8894034028053284  0.5965057611465454  0.78156840801239  1.0000
  O   O2        1.0  0.6986265182495117  0.9536941647529601  0.4972223937511443  1.0000
  O   O3        1.0  0.2100641429424286  0.5959650874137878  0.7811147570610045  1.0000
  O   O4        1.0  0.8016478419303894  0.8539884686470031  0.9006458520889281  1.0000
  Ca  Ca5       1.0  0.8458420038223267  0.09779836982488632  0.28294306993484497  1.0000
  O   O5        1.0  0.3063211143016815  0.6737406849861145  0.3222900927066802  1.0000
  O   O6        1.0  0.8008169531822205  0.4667753875255584  0.5250253081321716  1.0000
  O   O7        1.0  0.8011075854301453  0.46055081486701965  0.9053655266761779  1.0000
  O   O8        1.0  0.23622074723243713  0.05440893769264221  0.6950733065605164  1.0000
