data_image0
_chemical_formula_structural       MgSiO3CaO2SiO3
_chemical_formula_sum              "Mg1 Si2 O8 Ca1"
_cell_length_a       5.068374722231814
_cell_length_b       5.093381094724023
_cell_length_c       6.994001388549805
_cell_angle_alpha    90.11184001043304
_cell_angle_beta     90.10598654589164
_cell_angle_gamma    65.99208999076679

_space_group_name_H-M_alt    "P 1"
_space_group_IT_number       1

loop_
  _space_group_symop_operation_xyz
  'x, y, z'

loop_
  _atom_site_type_symbol
  _atom_site_label
  _atom_site_symmetry_multiplicity
  _atom_site_fract_x
  _atom_site_fract_y
  _atom_site_fract_z
  _atom_site_occupancy
  Mg  Mg1       1.0  0.8994472622871399  0.8845266699790953  0.8821762800216674  1.0000
  Si  Si1       1.0  0.5335887670516969  0.5174294114112853  0.11653827875852583  1.0000
  O   O1        1.0  0.17063921689987183  0.15641526877880096  0.4430644810199737  1.0000
  O   O2        1.0  0.18202508985996246  0.6628825068473816  0.10329937934875487  1.0000
  O   O3        1.0  0.1403968632221222  0.12524046003818512  0.8242624402046203  1.0000
  Ca  Ca1       1.0  0.899589478969574  0.884610116481781  0.38220700621604914  1.0000
  O   O4        1.0  0.659296214580536  0.6432702541351318  0.9395807981491088  1.0000
  O   O5        1.0  0.6180788278579712  0.10665164142847061  0.6611872911453246  1.0000
  Si  Si2       1.0  0.2662530839443207  0.2529935836791992  0.6480481028556823  1.0000
  O   O6        1.0  0.6291816830635072  0.6141761541366577  0.322095900774002  1.0000
  O   O7        1.0  0.12346914410591125  0.6025947332382202  0.6615782976150512  1.0000
  O   O8        1.0  0.6768476366996765  0.16654391586780548  0.10328438133001326  1.0000
