data_image0
_chemical_formula_structural       MgOSiO2SiOCaOCa2O2MgOCaO2
_chemical_formula_sum              "Mg2 O10 Si2 Ca4"
_cell_length_a       5.336368179024503
_cell_length_b       6.029405473832266
_cell_length_c       8.631277084350586
_cell_angle_alpha    83.88864950746932
_cell_angle_beta     79.73562844093206
_cell_angle_gamma    64.75213379775124

_space_group_name_H-M_alt    "P 1"
_space_group_IT_number       1

loop_
  _space_group_symop_operation_xyz
  'x, y, z'

loop_
  _atom_site_type_symbol
  _atom_site_label
  _atom_site_symmetry_multiplicity
  _atom_site_fract_x
  _atom_site_fract_y
  _atom_site_fract_z
  _atom_site_occupancy
  Mg  Mg1       1.0  0.2767121195793152  0.06302915513515472  0.13339923322200775  1.0000
  O   O1        1.0  0.4870177209377289  0.4602595269680024  0.4555182456970215  1.0000
  Si  Si1       1.0  0.22982402145862582  0.7394049763679504  0.46002158522605896  1.0000
  O   O2        1.0  0.00403749942779541  0.3343360424041748  0.2559908330440521  1.0000
  O   O3        1.0  0.7279871702194213  0.18605796992778778  0.7587122917175293  1.0000
  Si  Si2       1.0  0.8229731321334839  0.2694975733757019  0.9076598286628723  1.0000
  O   O4        1.0  0.6645036935806274  0.8466614484786987  0.1453239470720291  1.0000
  Ca  Ca1       1.0  0.09992890059947968  0.6345525979995728  0.03722210228443146  1.0000
  O   O5        1.0  0.9187059998512268  0.7548664808273315  0.5415463447570801  1.0000
  Ca  Ca2       1.0  0.5722512006759642  0.9011633992195129  0.7508727312088013  1.0000
  Ca  Ca3       1.0  0.6885334253311157  0.03884103521704674  0.34106048941612244  1.0000
  O   O6        1.0  0.31709969043731695  0.9434351325035095  0.5270854234695435  1.0000
  O   O7        1.0  0.1289106011390686  0.037143874913454056  0.9441661834716797  1.0000
  Mg  Mg2       1.0  0.6228412985801697  0.5452460050582886  0.21589712798595428  1.0000
  O   O8        1.0  0.5722175240516663  0.34108832478523254  0.06601548939943314  1.0000
  Ca  Ca4       1.0  0.9367488026618958  0.3535766899585724  0.5333682894706726  1.0000
  O   O9        1.0  0.8735589981079102  0.5213702917098999  0.857345461845398  1.0000
  O   O10       1.0  0.18663403391838074  0.8003674149513245  0.2678948640823364  1.0000
