data_image0
_chemical_formula_structural       Mg2O2CaSiO3SiO2
_chemical_formula_sum              "Mg2 O7 Ca1 Si2"
_cell_length_a       5.347020590904191
_cell_length_b       5.340850348724513
_cell_length_c       7.9548821449279785
_cell_angle_alpha    70.49796638156121
_cell_angle_beta     70.45910412606011
_cell_angle_gamma    60.03193358310639

_space_group_name_H-M_alt    "P 1"
_space_group_IT_number       1

loop_
  _space_group_symop_operation_xyz
  'x, y, z'

loop_
  _atom_site_type_symbol
  _atom_site_label
  _atom_site_symmetry_multiplicity
  _atom_site_fract_x
  _atom_site_fract_y
  _atom_site_fract_z
  _atom_site_occupancy
  Mg  Mg1       1.0  0.23839791119098663  0.1000030040740967  0.3007529079914093  1.0000
  Mg  Mg2       1.0  0.7510569095611572  0.611729085445404  0.7636412978172301  1.0000
  O   O1        1.0  0.38504335284233104  0.952334761619568  0.7352967858314513  1.0000
  O   O2        1.0  0.6039265394210815  0.046872485429048545  0.3300282955169677  1.0000
  Ca  Ca1       1.0  0.4948291480541229  0.35588860511779785  0.5319827795028687  1.0000
  Si  Si1       1.0  0.06929192692041389  0.9301638007164003  0.8082865476608275  1.0000
  O   O3        1.0  0.8986558318138123  0.4650186598300934  0.3300634622573852  1.0000
  O   O4        1.0  0.0923411026597023  0.6650885343551636  0.7351731061935424  1.0000
  O   O5        1.0  0.18460258841514585  0.759272575378418  0.3300945162773132  1.0000
  Si  Si2       1.0  0.919825553894043  0.781296193599701  0.257892370223999  1.0000
  O   O6        1.0  0.9946573376655579  0.8560262322425842  0.03275877237319946  1.0000
  O   O7        1.0  0.8036195635795593  0.2460359185934067  0.7356770038604735  1.0000
