data_image0
_chemical_formula_structural       CaOMg2SiO3
_chemical_formula_sum              "Ca1 O4 Mg2 Si1"
_cell_length_a       4.852614719554585
_cell_length_b       4.853137237335023
_cell_length_c       5.508707523345947
_cell_angle_alpha    116.21626702393074
_cell_angle_beta     116.24959925243982
_cell_angle_gamma    90.03353241744773

_space_group_name_H-M_alt    "P 1"
_space_group_IT_number       1

loop_
  _space_group_symop_operation_xyz
  'x, y, z'

loop_
  _atom_site_type_symbol
  _atom_site_label
  _atom_site_symmetry_multiplicity
  _atom_site_fract_x
  _atom_site_fract_y
  _atom_site_fract_z
  _atom_site_occupancy
  Ca  Ca1       1.0  0.25755345821380615  0.8294061422348022  0.13461770117282867  1.0000
  O   O1        1.0  0.8345493078231812  0.010842980816960335  0.893276870250702  1.0000
  Mg  Mg1       1.0  0.5065959692001343  0.5804954171180725  0.6345634460449219  1.0000
  Mg  Mg2       1.0  0.007922938093543053  0.07974298298358917  0.6348468661308289  1.0000
  Si  Si1       1.0  0.7573152184486389  0.3297339081764221  0.1343303918838501  1.0000
  O   O2        1.0  0.4378570318222046  0.40877196192741394  0.8941373825073243  1.0000
  O   O3        1.0  0.07580091059207916  0.6487911343574524  0.3742488026618958  1.0000
  O   O4        1.0  0.6791861057281494  0.25174611806869507  0.37474742531776434  1.0000
