data_image0
_chemical_formula_structural       OCa3MgO2CaSiO4CaO
_chemical_formula_sum              "O8 Ca5 Mg1 Si1"
_cell_length_a       6.516753018316497
_cell_length_b       6.4635817800967805
_cell_length_c       6.454245567321777
_cell_angle_alpha    113.91343521564835
_cell_angle_beta     102.18279191660793
_cell_angle_gamma    112.32022577162012

_space_group_name_H-M_alt    "P 1"
_space_group_IT_number       1

loop_
  _space_group_symop_operation_xyz
  'x, y, z'

loop_
  _atom_site_type_symbol
  _atom_site_label
  _atom_site_symmetry_multiplicity
  _atom_site_fract_x
  _atom_site_fract_y
  _atom_site_fract_z
  _atom_site_occupancy
  O   O1        1.0  0.06358776986598969  0.7922531962394714  0.15897913277149195  1.0000
  Ca  Ca1       1.0  0.4053787887096405  0.9039877653121947  0.9989252090454103  1.0000
  Ca  Ca2       1.0  0.9684550166130066  0.11675525456666945  0.25108516216278076  1.0000
  Ca  Ca3       1.0  0.42391523718833923  0.43523800373077387  0.9760629534721376  1.0000
  Mg  Mg1       1.0  0.9011301398277283  0.0867801159620285  0.6825284957885742  1.0000
  O   O2        1.0  0.11429862678050992  0.4059657156467437  0.12539274990558621  1.0000
  O   O3        1.0  0.6380228996276855  0.8899182677268981  0.309436023235321  1.0000
  Ca  Ca4       1.0  0.37826701998710627  0.8553797602653502  0.507462203502655  1.0000
  Si  Si1       1.0  0.9021737575531006  0.48085564374923706  0.07626685500144958  1.0000
  O   O4        1.0  0.13131602108478546  0.42869487404823303  0.6883648633956909  1.0000
  O   O5        1.0  0.6732978820800781  0.8617106676101685  0.7956346869468689  1.0000
  O   O6        1.0  0.1666959673166275  0.9779556393623352  0.7506598830223083  1.0000
  O   O7        1.0  0.7381749153137207  0.40286073088645935  0.22630989551544192  1.0000
  Ca  Ca5       1.0  0.8390818238258362  0.5925379991531372  0.6517956852912903  1.0000
  O   O8        1.0  0.6906858682632446  0.31780776381492615  0.7902748584747314  1.0000
