data_image0
_chemical_formula_structural       CaOCaO2MgSiO
_chemical_formula_sum              "Ca2 O4 Mg1 Si1"
_cell_length_a       4.6808956586557375
_cell_length_b       4.682174266018896
_cell_length_c       6.1544189453125
_cell_angle_alpha    112.30289177941407
_cell_angle_beta     112.29409542789226
_cell_angle_gamma    90.0586396833961

_space_group_name_H-M_alt    "P 1"
_space_group_IT_number       1

loop_
  _space_group_symop_operation_xyz
  'x, y, z'

loop_
  _atom_site_type_symbol
  _atom_site_label
  _atom_site_symmetry_multiplicity
  _atom_site_fract_x
  _atom_site_fract_y
  _atom_site_fract_z
  _atom_site_occupancy
  Ca  Ca1       1.0  0.3193858563899994  0.4793777763843537  0.09033447504043582  1.0000
  O   O1        1.0  0.6956447958946228  0.35398536920547485  0.4135995209217071  1.0000
  Ca  Ca2       1.0  0.8197962045669556  0.9781895279884338  0.08997724950313568  1.0000
  O   O2        1.0  0.8706063032150269  0.10469208657741547  0.7650871276855469  1.0000
  O   O3        1.0  0.270995557308197  0.9290615320205688  0.41572788357734675  1.0000
  Mg  Mg1       1.0  0.06987951695919037  0.7291918396949768  0.5901541709899902  1.0000
  Si  Si1       1.0  0.5697361826896667  0.2286826521158218  0.5898825526237488  1.0000
  O   O4        1.0  0.44469764828681946  0.5294893383979797  0.7644050121307373  1.0000
