data_image0
_chemical_formula_structural       MgSiCaOCaO5
_chemical_formula_sum              "Mg1 Si1 Ca2 O6"
_cell_length_a       5.373097278346458
_cell_length_b       5.372289926970151
_cell_length_c       5.372410297393799
_cell_angle_alpha    60.047740174621346
_cell_angle_beta     60.028996389044806
_cell_angle_gamma    60.02181830332411

_space_group_name_H-M_alt    "P 1"
_space_group_IT_number       1

loop_
  _space_group_symop_operation_xyz
  'x, y, z'

loop_
  _atom_site_type_symbol
  _atom_site_label
  _atom_site_symmetry_multiplicity
  _atom_site_fract_x
  _atom_site_fract_y
  _atom_site_fract_z
  _atom_site_occupancy
  Mg  Mg1       1.0  0.40683814883232117  0.013748615980148317  0.9713860750198364  1.0000
  Si  Si1       1.0  0.9071181416511536  0.5136502385139465  0.4713309407234191  1.0000
  Ca  Ca1       1.0  0.15728330612182612  0.7637854218482972  0.721064805984497  1.0000
  O   O1        1.0  0.14098063111305234  0.279917448759079  0.7051938772201538  1.0000
  Ca  Ca2       1.0  0.6570946574211121  0.26372236013412476  0.22087952494621277  1.0000
  O   O2        1.0  0.6730564832687378  0.27991169691085815  0.7053033113479613  1.0000
  O   O3        1.0  0.6729792356491089  0.747823178768158  0.7049435973167418  1.0000
  O   O4        1.0  0.14108635485172272  0.747621476650238  0.23741905391216278  1.0000
  O   O5        1.0  0.6729857921600342  0.7476711869239807  0.2371610701084136  1.0000
  O   O6        1.0  0.14078330993652344  0.27970653772354126  0.23727419972419733  1.0000
