data_image0
_chemical_formula_structural       MgCa2SiOCa2O2SiO2MgO5
_chemical_formula_sum              "Mg2 Ca4 Si2 O10"
_cell_length_a       5.849669901441603
_cell_length_b       5.992546181154544
_cell_length_c       8.20964527130127
_cell_angle_alpha    79.09264171453378
_cell_angle_beta     74.60205736577316
_cell_angle_gamma    78.70878506075557

_space_group_name_H-M_alt    "P 1"
_space_group_IT_number       1

loop_
  _space_group_symop_operation_xyz
  'x, y, z'

loop_
  _atom_site_type_symbol
  _atom_site_label
  _atom_site_symmetry_multiplicity
  _atom_site_fract_x
  _atom_site_fract_y
  _atom_site_fract_z
  _atom_site_occupancy
  Mg  Mg1       1.0  0.027759607881307602  0.7744346857070923  0.09841826558113098  1.0000
  Ca  Ca1       1.0  0.06829210370779037  0.5697030425071716  0.48151472210884094  1.0000
  Ca  Ca2       1.0  0.4903179705142975  0.5369642972946167  0.7352418303489685  1.0000
  Si  Si1       1.0  0.9433078765869141  0.974448561668396  0.6988510489463806  1.0000
  O   O1        1.0  0.7654470205307007  0.7964104413986207  0.6906352639198303  1.0000
  Ca  Ca3       1.0  0.5594255328178406  0.9973727464675904  0.1274871081113815  1.0000
  Ca  Ca4       1.0  0.5272939205169678  0.08046194911003113  0.5189986824989319  1.0000
  O   O2        1.0  0.3261459171772003  0.7299337387084961  0.17154382169246674  1.0000
  O   O3        1.0  0.17500655353069305  0.4661832153797149  0.021374696865677834  1.0000
  Si  Si2       1.0  0.38982918858528137  0.46731477975845337  0.12221721559762955  1.0000
  O   O4        1.0  0.2173585295677185  0.8575316071510315  0.6093332171440125  1.0000
  O   O5        1.0  0.7879920601844788  0.8375784754753113  0.30223211646080017  1.0000
  Mg  Mg2       1.0  0.0017916171345859766  0.32499006390571594  0.8879842162132263  1.0000
  O   O6        1.0  0.6459742784500123  0.40392521023750305  0.9878224730491638  1.0000
  O   O7        1.0  0.2521759271621704  0.3432081639766693  0.6788064241409302  1.0000
  O   O8        1.0  0.9297765493392944  0.9870924949645997  0.9075969457626343  1.0000
  O   O9        1.0  0.822096586227417  0.23729288578033447  0.6181731224060059  1.0000
  O   O10       1.0  0.3623444139957428  0.2801015377044678  0.2942791283130646  1.0000
