data_image0
_chemical_formula_structural       Mg2OCaMgOSiO4
_chemical_formula_sum              "Mg3 O6 Ca1 Si1"
_cell_length_a       5.560995056502211
_cell_length_b       5.400209877980163
_cell_length_c       6.046069145202637
_cell_angle_alpha    120.46344460115216
_cell_angle_beta     93.55829890323841
_cell_angle_gamma    106.23792348918083

_space_group_name_H-M_alt    "P 1"
_space_group_IT_number       1

loop_
  _space_group_symop_operation_xyz
  'x, y, z'

loop_
  _atom_site_type_symbol
  _atom_site_label
  _atom_site_symmetry_multiplicity
  _atom_site_fract_x
  _atom_site_fract_y
  _atom_site_fract_z
  _atom_site_occupancy
  Mg  Mg1       1.0  0.3789791762828827  0.7610024213790894  0.4549845755100251  1.0000
  Mg  Mg2       1.0  0.9521003365516663  0.9011007547378539  0.6805739402770996  1.0000
  O   O1        1.0  0.3453594148159027  0.09193306416273117  0.7778030037879944  1.0000
  Ca  Ca1       1.0  0.6310710906982422  0.18042057752609253  0.12880097329616547  1.0000
  Mg  Mg3       1.0  0.5266993045806885  0.4643494486808777  0.7875532507896423  1.0000
  O   O2        1.0  0.35538434982299805  0.7353063821792603  0.07941291481256485  1.0000
  Si  Si1       1.0  0.03694268316030502  0.630675196647644  0.034150015562772716  1.0000
  O   O3        1.0  0.9051735997200012  0.8481432795524597  6.365776062011719e-05  1.0000
  O   O4        1.0  0.8678799867630005  0.27872419357299805  0.7840684056282043  1.0000
  O   O5        1.0  0.9980114102363586  0.6324573755264282  0.30494365096092224  1.0000
  O   O6        1.0  0.5678377747535706  0.5497503876686095  0.5097922086715698  1.0000
