data_image0
_chemical_formula_structural       MgSiO2
_chemical_formula_sum              "Mg1 Si1 O2"
_cell_length_a       3.0574091446187985
_cell_length_b       3.0578099771825857
_cell_length_c       5.7860212326049805
_cell_angle_alpha    75.24838387200523
_cell_angle_beta     75.1111383313001
_cell_angle_gamma    61.18834706862053

_space_group_name_H-M_alt    "P 1"
_space_group_IT_number       1

loop_
  _space_group_symop_operation_xyz
  'x, y, z'

loop_
  _atom_site_type_symbol
  _atom_site_label
  _atom_site_symmetry_multiplicity
  _atom_site_fract_x
  _atom_site_fract_y
  _atom_site_fract_z
  _atom_site_occupancy
  Mg  Mg1       1.0  0.5411586165428162  0.3122776746749878  0.39566439390182495  1.0000
  Si  Si1       1.0  0.041034020483493805  0.8125933408737182  0.8957832455635071  1.0000
  O   O1        1.0  0.14118020236492157  0.9124978780746459  0.5952293872833252  1.0000
  O   O2        1.0  0.940980851650238  0.7121128439903259  0.19625632464885712  1.0000
