data_image0
_chemical_formula_structural       SiCaOSi
_chemical_formula_sum              "Si2 Ca1 O1"
_cell_length_a       3.800341426622432
_cell_length_b       3.803582503095119
_cell_length_c       5.678986549377441
_cell_angle_alpha    90.03081348950398
_cell_angle_beta     89.92075182113514
_cell_angle_gamma    120.01764138535272

_space_group_name_H-M_alt    "P 1"
_space_group_IT_number       1

loop_
  _space_group_symop_operation_xyz
  'x, y, z'

loop_
  _atom_site_type_symbol
  _atom_site_label
  _atom_site_symmetry_multiplicity
  _atom_site_fract_x
  _atom_site_fract_y
  _atom_site_fract_z
  _atom_site_occupancy
  Si  Si1       1.0  0.5807353854179381  0.0764668732881546  0.21718446910381317  1.0000
  Ca  Ca1       1.0  0.914264142513275  0.7424562573432921  0.7731887102127075  1.0000
  O   O1        1.0  0.5805611014366149  0.07672489434480667  0.9204497933387756  1.0000
  Si  Si2       1.0  0.24765960872173304  0.4099783599376678  0.3712862730026245  1.0000
