data_image0
_chemical_formula_structural       SiMgSiMgCaO6
_chemical_formula_sum              "Si2 Mg2 Ca1 O6"
_cell_length_a       5.094647485169936
_cell_length_b       5.094157920072971
_cell_length_c       6.862846374511719
_cell_angle_alpha    68.12808410122659
_cell_angle_beta     68.14209779966855
_cell_angle_gamma    59.83665251127143

_space_group_name_H-M_alt    "P 1"
_space_group_IT_number       1

loop_
  _space_group_symop_operation_xyz
  'x, y, z'

loop_
  _atom_site_type_symbol
  _atom_site_label
  _atom_site_symmetry_multiplicity
  _atom_site_fract_x
  _atom_site_fract_y
  _atom_site_fract_z
  _atom_site_occupancy
  Si  Si1       1.0  0.07911372184753418  0.7633497714996338  0.8353093862533568  1.0000
  Mg  Mg1       1.0  0.8201540112495422  0.5048762559890747  0.6106328964233397  1.0000
  Si  Si2       1.0  0.2003745585680008  0.8842638731002808  0.47224861383438105  1.0000
  Mg  Mg2       1.0  0.45832937955856323  0.14364942908287046  0.6966620683670043  1.0000
  Ca  Ca1       1.0  0.6398864984512329  0.323511004447937  0.15369476377964017  1.0000
  O   O1        1.0  0.529073178768158  0.9106990694999695  0.4261780381202697  1.0000
  O   O2        1.0  0.22611901164054865  0.5747680068016052  0.4260666072368621  1.0000
  O   O3        1.0  0.7500259280204773  0.07263177633285522  0.8814631104469298  1.0000
  O   O4        1.0  0.052423663437366506  0.4351279437541961  0.8807203173637389  1.0000
  O   O5        1.0  0.8914726376533508  0.21248595416545868  0.42607381939887995  1.0000
  O   O6        1.0  0.38863974809646606  0.7373294234275818  0.88082617521286  1.0000
